97
Properties=species:S:1:pos:R:3:forces:R:3 charge=0 spin=1 energy=-90906.1735011977 free_energy=-90906.1735011977 stress="0.7467164993286133 -0.33586469292640686 -0.15886132419109344 -0.33586469292640686 0.30444133281707764 -0.35511595010757446 -0.15886132419109344 -0.35511595010757446 0.04436798766255379" pbc="F F F"
C        0.24665924       1.30406067      -1.04459917       0.01154324       0.01113360      -0.02332511
O       -0.73658642       0.97719569      -1.80720434       0.01705903      -0.01422447      -0.01626153
Ni      -0.92647538      -0.27643834      -0.45479976      -0.00349979      -0.00935371       0.00869213
C       -1.19261808      -1.62234807       0.80119663       0.00425711       0.01092541      -0.01112906
N       -0.35674443      -2.49654234       1.40162531      -0.00690094       0.00559197      -0.00064569
N       -2.43905712      -1.94928947       1.20418242       0.00744546       0.01990223      -0.00365449
C       -1.03209739      -3.44945369       2.28627892      -0.00370963       0.00825046      -0.00121164
C        1.04510976      -2.57320239       1.14650680      -0.01343817      -0.00743976       0.00048803
C       -2.51097226      -3.17009570       2.00450228      -0.00647035       0.01078589      -0.00804594
C       -3.60651685      -1.23939985       0.78514260       0.01501754       0.02318595      -0.00545347
H       -0.73529872      -4.47256163       2.04799470      -0.01583181       0.00558571      -0.00767313
H       -0.77513621      -3.25480706       3.32922922      -0.00380040      -0.00429264       0.00452107
C        1.48822024      -3.31476411       0.04742385      -0.00726304       0.00544668       0.00180900
C        1.94180037      -1.93929384       2.01477947      -0.01292740       0.00189035      -0.01030941
H       -2.99066958      -3.97400210       1.43683663      -0.01037920       0.00672550      -0.01242679
H       -3.08695174      -3.01052046       2.91734895      -0.01896361       0.01831585      -0.01227081
C       -4.11500838      -0.23907233       1.62190163      -0.00914719       0.00073213      -0.00365625
C       -4.20165968      -1.54383650      -0.44504742      -0.00565312       0.00539045       0.01458783
C        2.85467933      -3.34609721      -0.21745203      -0.00804211      -0.00701987      -0.00614819
C        0.53473380      -4.12387766      -0.81056136       0.01392081      -0.00223837       0.00868504
C        3.29878997      -2.00353910       1.71983293      -0.00409410       0.01222042      -0.00109797
C        1.46170247      -1.25681949       3.27917296      -0.00437663       0.00183084      -0.01418373
C       -5.23794321       0.46333499       1.19924635      -0.00625668      -0.00117421       0.00480791
C       -3.44812294       0.12453222       2.93401116       0.00365965      -0.01513453      -0.01463229
C       -5.32431377      -0.81548453      -0.82665277      -0.00006161      -0.00194528      -0.00025252
C       -3.64637118      -2.60346299      -1.37693505       0.00395894       0.00875800       0.02074570
C        3.75253273      -2.68568715       0.60207811      -0.00759558      -0.01343842       0.00667726
H        3.22151699      -3.89193772      -1.07832060      -0.00838993      -0.02225897       0.00018815
C        0.85641536      -5.61604765      -0.67464186      -0.00638404       0.01189140      -0.00601113
C        0.55307908      -3.68768904      -2.27527268      -0.00461497      -0.00741991       0.01345494
H       -0.47716712      -3.95858084      -0.43414416       0.01607291      -0.01714903      -0.01273787
H        4.01147733      -1.50848760       2.36710531       0.00087417       0.01413055       0.01235430
C        2.19456023       0.05415406       3.56252342       0.00287694      -0.01307502       0.00345993
C        1.61651536      -2.20915197       4.47248014       0.00346753       0.01865113      -0.01010850
H        0.40269110      -1.02532981       3.14420435      -0.00196953       0.00877540       0.00251916
C       -5.83883638       0.18093013      -0.01562246       0.01481857      -0.00335449       0.00174087
H       -5.64132887       1.25253232       1.82180534       0.01206458       0.00485693       0.01265384
C       -4.42322827       0.04312952       4.10966826       0.01383969      -0.00501339      -0.00195042
C       -2.79928385       1.50771706       2.84229033       0.00497930      -0.00856144      -0.00303444
H       -2.64863725      -0.59698678       3.11342754       0.00945237      -0.00859249      -0.00238306
H       -5.79678729      -1.02125912      -1.77931843       0.00979166      -0.01425897      -0.00645696
C       -3.13434608      -1.97044833      -2.67330258       0.00230778       0.00180252       0.00453449
C       -4.68229792      -3.68900371      -1.67654299       0.01007107      -0.00401356       0.00706991
H       -2.79511935      -3.07441632      -0.88057475       0.01464215      -0.00470731      -0.00066264
H        4.81174477      -2.71186239       0.37700035      -0.00337086      -0.00767205       0.00476511
H        0.85007803      -5.93049606       0.37150113      -0.00510487       0.00467832      -0.02124816
H        1.84641449      -5.83858375      -1.07916498      -0.02155112      -0.01010573      -0.00060518
H        0.12647570      -6.21696228      -1.22013729       0.00476309       0.00039220      -0.00573185
H        0.17470718      -2.67056766      -2.38265522       0.00419890      -0.00212485       0.01274019
H       -0.07159546      -4.35409835      -2.87348058      -0.01576614       0.01280383      -0.01191625
H        1.56527653      -3.72268266      -2.68527651      -0.01619230      -0.00669135      -0.01177831
H        2.27544099       0.66174773       2.66367022      -0.00191615       0.00774784       0.01719256
H        3.20268056      -0.12649340       3.94122786       0.01225550       0.00031888      -0.00448121
H        1.65810367       0.63072209       4.31799826       0.01612735      -0.01154194       0.00917648
H        1.07614266      -3.14526117       4.32628153       0.01977427       0.01372959       0.00212120
H        1.25509793      -1.74245952       5.39094706      -0.00454938       0.00439642      -0.00075340
H        2.67002526      -2.46275461       4.61141139       0.00369000       0.01845396       0.01477819
H       -6.70571323       0.74648130      -0.33593952       0.01609920      -0.02353599       0.01370799
H       -4.88310015      -0.94459797       4.17810441      -0.00729462       0.00068877      -0.00375045
H       -5.22512816       0.77831144       4.01629072       0.01385912      -0.00352435      -0.00636856
H       -3.89943175       0.24205875       5.04633127      -0.00659228       0.01161226       0.00936257
H       -2.07598427       1.54957779       2.02568651       0.01083106      -0.01197665      -0.00158143
H       -2.28345894       1.75127671       3.77368164       0.00498985       0.00349595       0.00037012
H       -3.55188385       2.27983056       2.66377674       0.00429946      -0.00706503      -0.00135141
H       -2.38503307      -1.20065609      -2.47216017       0.00804754      -0.00270562       0.00775449
H       -3.95390119      -1.50243617      -3.22352366       0.00295857       0.00051205      -0.00580682
H       -2.68697997      -2.72943652      -3.31875743       0.00396759      -0.00614822       0.00319572
H       -5.05322996      -4.15479346      -0.76186163      -0.00010485       0.00293787       0.01082424
H       -4.24288917      -4.46646674      -2.30399552      -0.00320443      -0.01209366      -0.00597572
H       -5.53995617      -3.27712530      -2.21232378       0.00384096      -0.00495642       0.00741196
N        1.54333696       0.97829505      -1.43202200      -0.00619969       0.01447534      -0.00325472
C       -0.55387099       4.36078052       1.85401954      -0.01460269       0.00277354       0.00323784
C       -1.36782998       4.19541619       0.74261489      -0.00685891      -0.01260421      -0.01083127
H        1.18698045       3.64974657       2.89002054       0.02222635       0.00555761       0.00419117
C        0.54716891       3.53163673       2.02468036       0.01200427      -0.00908048       0.00205460
C       -1.09118430       3.20395849      -0.18625979       0.00058813       0.00516477      -0.02116829
C        0.02109330       2.37788625      -0.02863358       0.00961907      -0.02029883      -0.01158819
C        0.83960138       2.55743690       1.08495937      -0.00003641      -0.00883179      -0.00258462
H       -1.73201278       3.04781801      -1.04326123      -0.00741748       0.00743389      -0.01001219
H        1.71667680       1.93913890       1.20649230      -0.02064747      -0.02582566       0.01892853
H       -0.77417703       5.13263188       2.58003982      -0.00039999      -0.00262106       0.01589123
H       -2.22610109       4.83967047       0.60050778      -0.01927846      -0.00138383      -0.00353143
C        2.69829177       1.72498127      -1.11376423      -0.03505784       0.00514503       0.03072890
C        2.75744687       3.09414818      -1.36241144      -0.00368678      -0.00481286       0.00768324
C        3.81540882       1.07668096      -0.59201331      -0.02118684       0.00229200      -0.02185115
C        3.90914557       3.80543175      -1.06601510      -0.00815744      -0.01071411      -0.02154821
H        1.89302453       3.58830143      -1.78863798       0.02730299       0.01643246       0.01704490
C        4.97116381       1.79064771      -0.31279518      -0.01488741      -0.00008468      -0.01269815
H        3.76586134       0.01236230      -0.39692887       0.00272961      -0.00083770       0.00323341
C        5.02189688       3.15814145      -0.54255258      -0.01418678       0.01376416       0.01822423
H        3.94401431       4.86916206      -1.26663050       0.00082603      -0.01334866       0.02474190
H        5.83190965       1.27171128       0.09012527       0.01513152       0.01968120       0.01023001
H        5.92251865       3.71526863      -0.32115841       0.00633302       0.00730337      -0.00303605
C        1.73609722      -0.23653981      -2.20745741       0.01727046      -0.00210777       0.00696579
H        2.56011390      -0.09033399      -2.90582413       0.00428954       0.00341258      -0.00247321
H        1.95755245      -1.09604554      -1.56894363      -0.01351785       0.00013445       0.00353554
H        0.82791210      -0.44155893      -2.76831349       0.00139468       0.00524190      -0.00743329
