67
 energy: -100.170618200660 gnorm: 0.000292717177 xtb: 6.6.1 (8d0f1dd)
C           -0.89254167840000       -3.00139772480000       -1.80855858530000
C           -1.42445162360000       -2.64032391310000       -0.65351611260000
C           -2.60815240760000       -1.73198772700000       -0.50920561880000
O           -2.22039674530000       -0.49696587240000        0.05880067070000
C           -1.43587140930000        0.29947551670000       -0.81325388590000
C           -0.80680426130000        1.40081963730000       -0.00802854240000
C            0.52898907430000        1.33690892890000        0.34046740460000
C            1.10710933710000        2.33252308840000        1.12361171860000
C            0.30859570170000        3.38077470850000        1.57060956470000
C           -1.02910243620000        3.45171129010000        1.22954222920000
C           -1.60314705910000        2.47100507930000        0.42834465310000
O           -2.89509309590000        2.47507488600000        0.00591842460000
C           -3.78527178540000        3.42567321230000        0.54683495710000
C           -5.19333710440000        3.13807809400000        0.02570970820000
N           -5.81378894350000        2.04694815230000        0.73709730360000
C           -7.24492898210000        1.94087853470000        0.51443597430000
C           -7.61410315340000        0.56646300650000        1.08250739710000
C           -6.28957239820000       -0.21900733460000        1.07455170910000
C           -5.29438781460000        0.73042944570000        0.40879714420000
N            2.44967912890000        2.34158990740000        1.48473855890000
C            3.49245773010000        1.55354264570000        1.13167401230000
N            4.66811929810000        2.00397865120000        1.60308154740000
C            5.74158173550000        1.31068057450000        1.28726516900000
C            5.68646117150000        0.17275554820000        0.49904726680000
C            4.41800885180000       -0.23029008180000        0.07546513040000
N            3.32561862200000        0.45369162510000        0.39799267690000
C            4.27220330600000       -1.46019587690000       -0.72065991800000
C            5.17703953260000       -1.73138189360000       -1.74517567610000
C            5.09671618660000       -2.91803314720000       -2.44761079660000
C            4.13413964290000       -3.85730030660000       -2.11749422810000
C            3.22888809430000       -3.60307191780000       -1.09627957910000
C            3.28683633150000       -2.39223192860000       -0.41793657630000
C            2.19170411230000       -4.63126206340000       -0.70653271860000
O            0.88259136130000       -4.11516865230000       -0.66474187090000
C            0.36934010430000       -3.79523333100000       -1.93591771190000
H           -1.34831971990000       -2.72859672520000       -2.75210988040000
H           -0.93643613220000       -2.91902602220000        0.26795220800000
H           -3.33473461940000       -2.14991634760000        0.19337083250000
H           -3.09716659390000       -1.56996742110000       -1.48196055500000
H           -2.08111090820000        0.72089049740000       -1.59984349680000
H           -0.65317181580000       -0.31086580640000       -1.28225597950000
H            1.14012560280000        0.51508395270000        0.00532836220000
H            0.73788484290000        4.15581108500000        2.18988107190000
H           -1.61422522190000        4.28183969150000        1.59186141990000
H           -3.48620941410000        4.43848023690000        0.23952479510000
H           -3.79175878670000        3.36692889700000        1.64217452830000
H           -5.13252962410000        2.94703350250000       -1.06180725170000
H           -5.80259195300000        4.03192651220000        0.18597115740000
H           -7.49096627510000        1.98748535730000       -0.56191080070000
H           -7.76229024350000        2.75962113260000        1.01902417930000
H           -8.37964884340000        0.08442598200000        0.47600451170000
H           -7.99770795230000        0.66284915070000        2.09682523540000
H           -6.36986148530000       -1.16003731380000        0.53269333340000
H           -5.97202576230000       -0.43779452020000        2.09278216790000
H           -5.28577382230000        0.57345617900000       -0.68488511490000
H           -4.27746673310000        0.61022062420000        0.77643625840000
H            2.74397935440000        3.12811312880000        2.04994647600000
H            6.67779013540000        1.68663562470000        1.68159624410000
H            6.56963848920000       -0.39226703590000        0.25391475240000
H            5.93121379700000       -1.00184680970000       -2.00177468600000
H            5.79116305300000       -3.11775799270000       -3.25049173530000
H            4.08820249880000       -4.79394759110000       -2.65525870450000
H            2.57379002200000       -2.18136827650000        0.36473023090000
H            2.38925442960000       -4.98248362820000        0.31169838730000
H            2.24332554500000       -5.49382778750000       -1.38959318310000
H            0.17934982770000       -4.71947342140000       -2.51125295340000
H            1.10316289390000       -3.20095074390000       -2.50704311240000
