67
 energy: -100.167631970115 gnorm: 0.000299484587 xtb: 6.6.1 (8d0f1dd)
C           -0.94333873420000       -3.23203358450000       -0.24806098670000
C           -1.95870769870000       -2.95581625320000       -1.04766678000000
C           -2.36963173690000       -1.56406669140000       -1.44167444440000
O           -1.62445123960000       -0.54117388870000       -0.83738971780000
C           -2.06892459800000       -0.20939470910000        0.46364438120000
C           -1.25245206500000        0.92381884150000        1.01461092370000
C            0.04170034700000        1.16108873220000        0.58610011760000
C            0.73970353160000        2.27675144340000        1.03753140520000
C            0.12265453500000        3.14407606690000        1.93618271910000
C           -1.15374879610000        2.89035378100000        2.39766487580000
C           -1.85317751800000        1.77836631700000        1.94739337390000
O           -3.10909438640000        1.44010598260000        2.39098350150000
C           -4.05429369970000        2.47629229050000        2.54000343170000
C           -4.24009830350000        3.26840147410000        1.23797110480000
N           -4.37539119680000        2.37312649470000        0.11862700580000
C           -4.10325229040000        2.95323165670000       -1.18042571290000
C           -4.50800330450000        1.82979540550000       -2.12632922900000
C           -5.76357542700000        1.25335645140000       -1.45841622500000
C           -5.65314304460000        1.68849460380000        0.01295696270000
N            2.01032267420000        2.61525915490000        0.58601038750000
C            3.00409811250000        1.88322121490000        0.02481446990000
N            4.05930902500000        2.63499629430000       -0.33134608500000
C            5.08089080640000        2.00331012210000       -0.87176832150000
C            5.10651125160000        0.62789202700000       -1.02310755870000
C            3.98045345800000       -0.07365810550000       -0.58102441270000
N            2.91683746520000        0.56084067480000       -0.09448282360000
C            3.95882361170000       -1.54350862130000       -0.62264379910000
C            5.13604474450000       -2.25369205920000       -0.39250823830000
C            5.13812601070000       -3.63432311470000       -0.43788702390000
C            3.97147160790000       -4.32094020340000       -0.72284820990000
C            2.78876062900000       -3.62930656630000       -0.94887564550000
C            2.78516255660000       -2.24319129230000       -0.88453637620000
C            1.51291491920000       -4.39069912980000       -1.19459818400000
O            0.93412392770000       -4.70849145340000        0.06493953370000
C           -0.47193715150000       -4.61125937930000        0.10208768810000
H           -0.34472136020000       -2.43628738890000        0.17407915660000
H           -2.55550014650000       -3.74443495460000       -1.48859605040000
H           -3.44657798850000       -1.43018731910000       -1.24429023920000
H           -2.21294188380000       -1.44950134310000       -2.52259702280000
H           -2.00877828990000       -1.08026331930000        1.13406065840000
H           -3.11963660890000        0.11379072580000        0.42929787690000
H            0.49881497040000        0.49732229580000       -0.12703150130000
H            0.64957918450000        4.02290425090000        2.28014335880000
H           -1.60255563890000        3.56742622140000        3.10864060530000
H           -3.78683449250000        3.16253264400000        3.35475034370000
H           -4.97909972060000        1.96302968540000        2.81338176320000
H           -3.34842403540000        3.87696764110000        1.06532393920000
H           -5.10744723420000        3.94638136060000        1.35576238660000
H           -3.04558087550000        3.21139882210000       -1.25750348340000
H           -4.70712965990000        3.85971631200000       -1.36831115990000
H           -3.71260399640000        1.08655616920000       -2.15207539010000
H           -4.69568599980000        2.18052449440000       -3.13925239080000
H           -5.80951042570000        0.17002163930000       -1.55788455840000
H           -6.66503920960000        1.66842172950000       -1.90909492280000
H           -5.66817004320000        0.83732552200000        0.69815881570000
H           -6.48978511990000        2.35637743530000        0.28335089180000
H            2.29055940770000        3.57534498630000        0.73988240600000
H            5.91075548840000        2.62758505140000       -1.18012253900000
H            5.94795235660000        0.12633055240000       -1.46930036860000
H            6.04644169850000       -1.72529592150000       -0.15085538500000
H            6.05280451420000       -4.17749917680000       -0.24998375930000
H            3.97193170470000       -5.40002868600000       -0.76193873570000
H            1.87398292860000       -1.68826042380000       -1.05107273380000
H            1.71934488350000       -5.32325706890000       -1.74166084170000
H            0.82089425770000       -3.78136397200000       -1.78710093280000
H           -0.73570657320000       -4.85304454600000        1.13750846810000
H           -0.93591131080000       -5.35740913470000       -0.56255964400000
