173
 energy: -270.433942060712 gnorm: 0.000456575345 xtb: 6.6.1 (8d0f1dd)
N           -3.92323638964478       -0.10380387986505        3.57328817989975
C           -4.82677593167134        1.02507442035877        3.50004148830826
C           -5.50637684777051        1.01818517378568        2.12360146348506
O           -6.67769438939129        0.74998039495222        1.96270820871293
N           -4.65960031306303        1.32034815768808        1.12184626717743
C           -5.06311268772812        1.35174686764440       -0.26015231206531
C           -3.71182398785339       -0.81769861409952        4.69333462310150
C           -2.53889776956346       -1.81178468987028        4.55771948186137
O           -4.35309728622822       -0.70402451082976        5.71506254946081
N           -1.33198934320471       -1.20816075276100        5.12663030729655
C           -2.75782183319912       -3.06959125792202        5.39459507026687
C           -0.90359337900330       -1.89899797218855        6.33087642507208
C           -0.72060890027286       -0.19063157550321        4.52344453924406
C           -2.13522561905558       -2.70197848105932        6.73769414958517
C            0.55841902154618        0.35114528541693        5.14362038768735
O           -1.18639477336743        0.33825519362504        3.51257117160789
N            1.43337216949266        0.77198076236711        4.07130348101445
C            0.20504959930426        1.53798195717345        6.05228779881887
C            2.76691023939645        0.80121567578332        4.23059582680595
C            3.54314897242727        1.20011334404398        2.95959146430649
O            3.31577449614017        0.53929523824752        5.28219282233575
N            3.06686051855284        2.47302781676709        2.41961751548337
C            5.03126070073320        1.41248631042106        3.25601047959743
C            4.05127972377624        3.50733971907567        2.65888767285915
C            2.02658381647956        2.49607520193272        1.58270600758598
C            5.37161935857995        2.74669364693863        2.59474462123961
C            1.61616034651784        3.85084503349945        0.99580173633168
O            1.35815554302722        1.49048223489189        1.36066353369716
N            0.47214163912125        3.66996256352035        0.13052518499488
C            1.05307341202074        4.76353217834619        2.09111920766002
C           -0.76859040970998        3.75560624517442        0.89010489576201
C            0.42444897047467        3.39091338629503       -1.17861497655053
C           -0.34904087797287        4.19162406124751        2.29268273274997
C            1.75723450038104        3.31876668908087       -1.93238033664249
O           -0.65638037868060        3.21844105900029       -1.73471931394045
N            2.37385011942463        2.03426884525569       -1.68869280606921
C            1.57538561890541        3.52306080269767       -3.43409119770931
C            3.54280485455771        1.86413011406686       -1.05533350642759
C            4.08172567222298        0.43460952338534       -1.18814848167761
O            4.08114239494271        2.72852116586688       -0.38461142421322
N            3.90801617273220       -0.05651727797019       -2.54524122467399
C            5.55128740251383        0.36858461337662       -0.77997470750943
C            4.25735288085756        0.68431795350484       -3.60798053539883
C            4.11560485374537       -0.01163509550375       -4.97847796810169
O            4.74444470722541        1.79445090215935       -3.51817922771190
N            3.07585928139557       -1.02283244136451       -5.05063259693565
C            3.98195428638829        1.03380294108437       -6.08307902712399
C            1.77227937017990       -0.82970636528895       -5.30769852096142
C            1.02381329202061       -2.17949426089834       -5.45768052405261
O            1.21840889337971        0.24231129961844       -5.45555282777806
N            0.78442888171168       -2.76082056486339       -4.14940584409388
C           -0.27054839697694       -2.02269385289096       -6.26369289344030
C            1.73711506598330       -3.46703831049289       -3.53056628421388
C            0.07435638381462       -1.61619939318296       -7.69520075806338
C           -1.08432489617446       -3.31481692365483       -6.25805053351824
C            1.36495577916283       -4.08295942677580       -2.17788880050425
O            2.83707734562453       -3.67272687411709       -4.02754547141250
N            0.51039895974666       -3.20063798880897       -1.40282254612492
C            0.53894324094418       -5.35872912454701       -2.35955501695003
C           -0.84812988484183       -3.70483441948397       -1.31239602570421
C            1.07119675890861       -2.18705218578416       -0.71620506932451
C           -0.89957980902034       -4.84909078006743       -2.32341518168444
C            0.14431774213435       -1.11354211576187       -0.12949255502102
O            2.28122765407219       -2.08463851496578       -0.60426018559346
N           -0.69141212228675       -0.55242386144785       -1.17907455442339
C           -0.74004276749193       -1.56382260056217        1.03680549844568
C           -0.14075173342454       -0.13828954404212       -2.32190741905491
C           -0.02918791403037       -2.46165340990224        2.00871436662347
C           -1.01669384615891        0.63361053447127       -3.29400061139346
O            1.04374902422684       -0.31711929000462       -2.57454180396725
C            1.19510433441906       -2.08080750757612        2.54515829325819
C           -0.59727891260167       -3.65702836662342        2.43187384743990
N           -2.42151045955045        0.30110704042326       -3.23760751886735
C            1.82811834725255       -2.86315650444428        3.49269557993194
C            0.03897082800795       -4.44903198758609        3.37344098341216
C           -2.87538059279328       -0.95535002768259       -3.26597524313334
C            1.24944273726705       -4.05013110163739        3.91248982976480
C           -4.39705310516310       -1.09789018297385       -3.09670251973189
O           -2.16586765962499       -1.92999967571761       -3.44051089619346
N           -4.92759227318189       -0.06037382837613       -2.22754569320995
C           -5.06327346974805       -1.02704163041458       -4.46498056028215
C           -4.43163663458645        0.16814236667648       -0.99632278254561
O           -3.50283852817981       -0.46959435934518       -0.53369719678880
C           -4.05484680998194        2.35265730682090        3.74540320944248
O           -2.92128855801078        2.44179709869025        2.91127569340508
C           -3.67581110719779        2.50273360244590        5.21537255481347
C           -4.60960259059021        2.65795769930250       -0.92037108602380
H           -3.27756008055342       -0.21033747632523        2.80296922601147
H           -5.58982900114412        0.89093065593928        4.27180849121714
H           -3.72973713683695        1.65617773555098        1.35426495241235
H           -6.15587716080538        1.25893506283335       -0.27498951024008
H           -2.36431765366936       -2.03334025883874        3.50123630210096
H           -3.81565092141900       -3.30575888659426        5.48354855895631
H           -2.23178076177256       -3.91047366665793        4.94287041514225
H           -0.06282387466667       -2.56119309314563        6.09297829821072
H           -0.59852670836942       -1.19360182294052        7.10403342026028
H           -1.88091790337953       -3.57089117721166        7.33949840826430
H           -2.82813628397457       -2.06929850393959        7.29170489988921
H            1.08642568222768       -0.41219044594751        5.72296030802542
H            1.01770695576488        0.92393182045731        3.15524657576806
H           -0.26558874242304        2.32522625930753        5.46699415525365
H           -0.47554681358645        1.23248716231350        6.84341288728721
H            1.11617905541778        1.92514405366922        6.50021876069151
H            3.37279078660141        0.42229075648981        2.20578116674374
H            5.63686608335743        0.59276737397316        2.87629787156981
H            5.16585584462833        1.46299324365750        4.33834180503213
H            3.89455734490155        3.93520156736569        3.65703440285364
H            3.99845165972316        4.29068786708555        1.90823247629160
H            5.62964954312316        2.60577587111596        1.54566955293069
H            6.17998458181147        3.27118971036040        3.09859207099227
H            2.46264874459349        4.28039809079617        0.45944180744527
H            1.64649157164712        4.75012991322834        3.00189230626700
H            1.00050946667517        5.78771798757207        1.71823780430582
H           -1.42622373308636        4.48179168620857        0.40385911578901
H           -1.27179638743969        2.78705557284189        0.89784639705335
H           -1.04306456118444        4.91216115638824        2.71836306192969
H           -0.30440170166849        3.32467103888475        2.94997647945916
H            2.44213786873620        4.08145536375646       -1.54581421869297
H            1.99457985927725        1.24574679788873       -2.20435012427575
H            1.03108653182906        2.68972950155096       -3.87050978491464
H            1.03033525917489        4.44323003357134       -3.62812346346276
H            2.55536332134478        3.57423863044579       -3.90152659230208
H            3.48097193300124       -0.21817145363708       -0.54646074429447
H            3.38864355813418       -0.91287748826734       -2.65730116729197
H            5.91523637160033       -0.65133488265653       -0.87283394274248
H            6.13349918064032        1.02314919558405       -1.42323806548023
H            5.66498213140372        0.69833979048193        0.24776438928904
H            5.06618847873085       -0.54559355039987       -5.11688629548547
H            3.35148849138471       -1.97826545110725       -4.84177584008824
H            4.07965647258561        0.56635930551160       -7.06002313507741
H            3.01421950844955        1.52111253315203       -6.01674592121580
H            4.76156724535162        1.77887282139470       -5.95482360946000
H            1.69310919098371       -2.87173260161361       -5.98600670090366
H           -0.07082208145238       -2.49513974091065       -3.67938982490840
H           -0.86671308770666       -1.22762946812785       -5.80746664563844
H           -0.83440967216029       -1.47090778638380       -8.27475078788065
H            0.66951775069401       -2.38958192355108       -8.17685557653502
H            0.63651387566643       -0.68690905691286       -7.70190811729571
H           -1.88941547765176       -3.24873309108119       -6.98660936110970
H           -1.52744733914694       -3.48571751000753       -5.28167785333158
H           -0.45670115209557       -4.16484274976536       -6.51722091092292
H            2.30571045044693       -4.26143523758531       -1.64658374623051
H            0.78453516156845       -5.87136680396772       -3.28736452858106
H            0.72349411030018       -6.03806758986676       -1.52624176416191
H           -1.02405721018780       -4.08779216455459       -0.30132010741355
H           -1.58033180556062       -2.93193308926303       -1.54479321150514
H           -1.60561699984195       -5.62160053720622       -2.02388658556870
H           -1.19675401269948       -4.47041613320612       -3.29962270951816
H            0.82333527827039       -0.32352421537680        0.21980341807694
H           -1.66738527138527       -0.39296433435648       -0.96144637404131
H           -1.04261673802760       -0.65664268751900        1.56857527654369
H           -1.64267027061049       -2.04629621172907        0.65981173376610
H           -0.59979444610775        0.48211248109562       -4.29671867023335
H           -0.90779247337358        1.69076584064718       -3.02691745343867
H            1.65149047598117       -1.16511711963137        2.20958030473176
H           -1.55049000477996       -3.97438787831382        2.02785527086063
H           -3.06455754676442        1.05815541682459       -3.07114667112722
H            2.77393113368909       -2.54518202810276        3.90613123685093
H           -0.41107768730976       -5.38151839111197        3.68438107053102
H            1.74286744759366       -4.66489354306851        4.65099609194838
H           -4.57076260378569       -2.08469492163910       -2.64690040652910
H           -5.75937692867134        0.42088412216460       -2.53122387872590
H           -6.13569461314269       -1.18773244287581       -4.37658444044256
H           -4.88348292535646       -0.05827400961171       -4.92717085979911
H           -4.64984570925333       -1.79819031734073       -5.10920135837538
H           -4.70244044112531        3.18530231883655        3.44595249173697
H           -2.26876898396385        1.76858294390224        3.18726431375373
H           -3.12783196665839        3.43127352362892        5.35872299730735
H           -4.56489428821327        2.51473478370113        5.83782466561275
H           -3.04686823491277        1.67259556793755        5.52826067250406
H           -4.99072542082654        2.73633148977590       -1.93567986620038
H           -4.98596612203198        3.50191933845251       -0.34786497776194
H           -3.52219306834991        2.71696295667660       -0.94494750401056
