97
Properties=species:S:1:pos:R:3:forces:R:3 spin=1 charge=0 energy=-90906.07414645374 pbc="F F F"
C       -0.07634348       1.83548595      -1.71226160       0.00030373       0.00716012      -0.00603109
O       -0.91095112       1.64699712      -2.60839295       0.00047753       0.00942727      -0.00627648
Ni       0.40070143       0.14390080      -0.71960692      -0.00432976       0.00445279       0.00027248
C       -0.49295285      -1.12381973       0.31160541      -0.00010360       0.00007693      -0.00060517
N        0.17530706      -2.14242815       0.89635520       0.00001975       0.00027816      -0.00014470
N       -1.79690854      -1.33052708       0.55538074      -0.00008058      -0.00095521      -0.00080867
C       -0.67485314      -3.05279564       1.66052856       0.00034435       0.00147137       0.00166251
C        1.59934262      -2.20282466       0.90173034      -0.00016718      -0.00060793       0.00068137
C       -2.07388429      -2.60161785       1.22807427       0.00022883      -0.00001525       0.00090529
C       -2.84826790      -0.49187578       0.07424365       0.00017262      -0.00101442      -0.00087224
H       -0.46724163      -4.09261060       1.40300481       0.00085974       0.00102121       0.00400691
H       -0.50885226      -2.92808197       2.73556621       0.00031099       0.00389350       0.00141715
C        2.24838764      -2.91167812      -0.11460165      -0.00017619      -0.00154418       0.00135171
C        2.30998696      -1.53145720       1.90270217      -0.00050225      -0.00114379       0.00120053
H       -2.53657849      -3.30432029       0.52896237       0.00051246      -0.00137448       0.00209915
H       -2.75522328      -2.45716141       2.06742043       0.00018591       0.00104918       0.00070620
C       -3.41419409       0.43247966       0.95631410       0.00100992      -0.00044070      -0.00108971
C       -3.29248773      -0.62798749      -1.24490729       0.00042099      -0.00107222      -0.00088553
C        3.63915850      -2.90433040      -0.13516073      -0.00019467      -0.00215136       0.00199002
C        1.47666186      -3.67515205      -1.17207841      -0.00023977      -0.00090310       0.00084390
C        3.69973649      -1.55772653       1.85095168      -0.00049389      -0.00195728       0.00201591
C        1.60672640      -0.79728571       3.02710785      -0.00110326       0.00015576       0.00001493
C       -4.42746256       1.25706990       0.48075788       0.00178564       0.00033607      -0.00136356
C       -2.95470049       0.55318654       2.39596858       0.00186327      -0.00090040      -0.00134511
C       -4.30627695       0.21772311      -1.67927955       0.00133787      -0.00019285      -0.00130044
C       -2.74311309      -1.69698400      -2.16916617       0.00046388      -0.00160908      -0.00024125
C        4.36063343      -2.22847013       0.83463884      -0.00033575      -0.00226061       0.00226234
H        4.16473478      -3.43129027      -0.92248217      -0.00002665      -0.00241528       0.00226731
C        1.78164600      -5.17258091      -1.09283251       0.00080110      -0.00084909      -0.00235044
C        1.75116852      -3.12597809      -2.57185388      -0.00165418       0.00177349       0.00163462
H        0.41293757      -3.53521105      -0.97154859      -0.00023033      -0.00213394       0.00180526
H        4.27277991      -1.04032948       2.61132056      -0.00058746      -0.00225190       0.00229921
C        1.99954704       0.67892584       3.07061723      -0.00160926       0.00037149      -0.00271312
C        1.87968147      -1.48242055       4.36846805      -0.00195456       0.00284176       0.00159263
H        0.53292742      -0.83560679       2.83485266      -0.00101000      -0.00041245      -0.00036036
C       -4.86570520       1.15603189      -0.82819463       0.00208715       0.00047338      -0.00149904
H       -4.87276400       1.99211052       1.14068769       0.00235224       0.00090889      -0.00160651
C       -4.09398327       0.24020586       3.36852706       0.00197128       0.00038855      -0.00084249
C       -2.35796403       1.93282407       2.66695909       0.00441937      -0.00191059      -0.00191331
H       -2.16160401      -0.18008818       2.55793837       0.00089879      -0.00200097      -0.00172267
H       -4.65973318       0.14559156      -2.69999405       0.00166895       0.00016412      -0.00143327
C       -2.39002589      -1.15366169      -3.55333542       0.00009508      -0.00224928      -0.00057254
C       -3.74346027      -2.85232337      -2.28533380       0.00102002      -0.00222129       0.00102012
H       -1.82175473      -2.08060905      -1.72538133       0.00071418      -0.00093265      -0.00019345
H        5.44300356      -2.22871942       0.80110125      -0.00035823      -0.00258264       0.00262105
H        1.57737080      -5.56645090      -0.09538897      -0.00026067      -0.00361540      -0.00368450
H        2.83092196      -5.37259948      -1.31948836       0.00114811       0.00029476      -0.00168527
H        1.17354351      -5.72475106      -1.81160353       0.00201259       0.00066578      -0.00456745
H        1.48924385      -2.06792334      -2.62516103      -0.00214717       0.00174830       0.00405394
H        1.16199857      -3.66537478      -3.31628436      -0.00207094       0.00300077       0.00108101
H        2.80518555      -3.23266381      -2.83884659      -0.00179063       0.00264787       0.00067256
H        1.76665464       1.16417155       2.12216121      -0.00037180      -0.00192872      -0.00427236
H        3.06699955       0.80191580       3.26812538      -0.00191340       0.00097566      -0.00140347
H        1.45203483       1.19441147       3.86233910      -0.00296747       0.00196058      -0.00467815
H        1.59230853      -2.53545502       4.34344482      -0.00400718       0.00332261       0.00441388
H        1.32469358      -0.99285269       5.17075180      -0.00101575       0.00588539       0.00042254
H        2.94183914      -1.43677096       4.61887105      -0.00189686       0.00148497       0.00154211
H       -5.65038198       1.81029948      -1.18733164       0.00292016       0.00126365      -0.00187682
H       -4.51469412      -0.75091427       3.18673609       0.00145059       0.00052233      -0.00041650
H       -4.90405127       0.96536307       3.26808166       0.00232489       0.00073528      -0.00091967
H       -3.73823219       0.27953176       4.40007217       0.00230785       0.00046484      -0.00095660
H       -1.53778707       2.14246334       1.98021963       0.00470265      -0.00380104      -0.00223466
H       -1.98074829       1.99417231       3.69070824       0.00487240      -0.00233557      -0.00204188
H       -3.10759578       2.71685082       2.53912891       0.00591110      -0.00050875      -0.00201727
H       -1.74504607      -0.27922167      -3.47410671      -0.00088327      -0.00139108      -0.00117490
H       -3.28737631      -0.86576935      -4.10625875      -0.00004662      -0.00368733      -0.00104036
H       -1.88583231      -1.92734529      -4.13743159       0.00118783      -0.00206473       0.00011915
H       -4.00568625      -3.26568894      -1.30927246       0.00332830      -0.00286210       0.00137021
H       -3.33431965      -3.65562330      -2.90171956       0.00041664      -0.00173522      -0.00004211
H       -4.66809278      -2.50629766      -2.75334804      -0.00019654      -0.00276727       0.00305347
N        1.28592472       1.34215145      -1.93318369      -0.00248922       0.00157129      -0.00242200
C       -1.07342736       4.90722263       1.13539458       0.00092482      -0.00058468       0.00336314
C       -1.91678706       4.56212719       0.08891165       0.00005407       0.00074319       0.00364964
H        0.78378637       4.47133046       2.11934326       0.00487512       0.00245119      -0.00281086
C        0.12405603       4.22474788       1.29648935       0.00330355       0.00251414      -0.00157408
C       -1.55521599       3.56209275      -0.79871130       0.00083979       0.00424299       0.00001873
C       -0.34187081       2.88518332      -0.66061624       0.00203496       0.00555077      -0.00363619
C        0.48552827       3.21742455       0.41390457       0.00395086       0.00557344      -0.00484366
H       -2.19864815       3.28342876      -1.62183582       0.00020970       0.00576489       0.00001933
H        1.41709223       2.69807787       0.57612179       0.00622523       0.00863588      -0.00805301
H       -1.34984625       5.69539126       1.82431246      -0.00018813      -0.00406359       0.00694856
H       -2.85994912       5.07797969      -0.04307675      -0.00148825      -0.00124078       0.00697789
C        2.46406046       2.05482041      -1.50255578      -0.00185916       0.00033117      -0.00265271
C        2.74740346       3.30345115      -2.03707867      -0.00555370       0.00470433       0.00568072
C        3.34141727       1.45682943      -0.60994431       0.00045314      -0.00450081      -0.00825655
C        3.90616774       3.96577212      -1.66073242      -0.00670595       0.00465409       0.00951525
H        2.05339887       3.75247081      -2.73755208      -0.00821783       0.00884421       0.01093133
C        4.49557655       2.12691204      -0.22902086      -0.00025156      -0.00509449      -0.00532455
H        3.09938423       0.47836500      -0.20632968       0.00188926      -0.00734043      -0.01424307
C        4.77941525       3.38110859      -0.75305427      -0.00405897      -0.00036693       0.00374067
H        4.12821037       4.93950308      -2.07772957      -0.00999267       0.00887016       0.01757939
H        5.17291820       1.66687090       0.47966314       0.00151653      -0.00886520      -0.00954548
H        5.68176398       3.90122508      -0.45866238      -0.00500118      -0.00044603       0.00666628
C        1.49345641       0.77850239      -3.28222135      -0.00145419      -0.00558532       0.00077082
H        1.55281989       1.58148819      -4.02112131       0.00352994      -0.00951358      -0.00311926
H        2.42716729       0.21817357      -3.27539357      -0.00361113      -0.00915293       0.00616373
H        0.66358841       0.12921054      -3.53896835      -0.00311915      -0.00411367       0.00223987
