97
Properties=species:S:1:pos:R:3:forces:R:3 spin=1 charge=0 energy=-90906.0675012511 pbc="F F F"
C       -0.08630651       1.82861205      -1.69680003       0.00056429       0.00878880      -0.00758625
O       -0.92992895       1.64145829      -2.58533655       0.00098463       0.01165195      -0.00812021
Ni       0.39400266       0.13315124      -0.72638928      -0.00538682       0.00549990       0.00048401
C       -0.49746152      -1.12875557       0.31230724      -0.00019529       0.00010992      -0.00057023
N        0.17425136      -2.13956677       0.90591709       0.00000145       0.00025738      -0.00016626
N       -1.80099637      -1.33997208       0.55275496      -0.00015835      -0.00111310      -0.00068206
C       -0.67376363      -3.05365126       1.66807471       0.00039364       0.00158110       0.00188131
C        1.59860679      -2.19306635       0.91318835      -0.00021472      -0.00078750       0.00074561
C       -2.07445144      -2.60661259       1.23535727       0.00023788      -0.00004421       0.00122123
C       -2.85482632      -0.50604550       0.06855437       0.00012956      -0.00116681      -0.00073036
H       -0.46275739      -4.09234933       1.40860857       0.00093139       0.00106369       0.00445365
H       -0.50894502      -2.93070522       2.74336298       0.00046565       0.00422675       0.00161283
C        2.25315428      -2.89099390      -0.10729241      -0.00022013      -0.00193731       0.00154338
C        2.30412309      -1.52456124       1.91978950      -0.00054966      -0.00141319       0.00130411
H       -2.53838948      -3.31467560       0.54265904       0.00042817      -0.00154833       0.00262176
H       -2.75380896      -2.45682546       2.07539482       0.00029483       0.00113876       0.00109345
C       -3.42466936       0.41883603       0.94760921       0.00103879      -0.00053712      -0.00098223
C       -3.29771471      -0.64719713      -1.25047645       0.00046580      -0.00114368      -0.00077693
C        3.64398579      -2.87865415      -0.12358025      -0.00021836      -0.00252437       0.00217074
C        1.48741148      -3.64957388      -1.17262714      -0.00023642      -0.00141899       0.00110202
C        3.69409695      -1.54628810       1.87238189      -0.00052204      -0.00218459       0.00209198
C        1.59473030      -0.79655090       3.04434673      -0.00112946      -0.00029955       0.00024725
C       -4.44237595       1.23665850       0.46981548       0.00192763       0.00032499      -0.00125522
C       -2.96705814       0.54546314       2.38735391       0.00205201      -0.00086536      -0.00128708
C       -4.31611647       0.19173862      -1.68706438       0.00149713      -0.00014440      -0.00123762
C       -2.74056742      -1.71345290      -2.17309742       0.00057456      -0.00159406      -0.00018721
C        4.36028811      -2.20822330       0.85374154      -0.00039834      -0.00247291       0.00232239
H        4.17370491      -3.39752490      -0.91347332      -0.00007297      -0.00286692       0.00248781
C        1.78323289      -5.14866365      -1.08943945       0.00098108      -0.00134763      -0.00221990
C        1.77873126      -3.10320773      -2.57006606      -0.00169863       0.00140931       0.00191746
H        0.42264482      -3.50327483      -0.98265324      -0.00025578      -0.00277333       0.00210400
H        4.26314247      -1.03159621       2.63756049      -0.00063530      -0.00246559       0.00235752
C        1.99372480       0.67749975       3.10381110      -0.00177914      -0.00001503      -0.00243786
C        1.85363487      -1.49326252       4.38247035      -0.00182310       0.00229467       0.00179774
H        0.52248855      -0.82844289       2.84237673      -0.00104232      -0.00098269      -0.00002261
C       -4.88073825       1.12917078      -0.83854328       0.00225169       0.00055951      -0.00144370
H       -4.89149722       1.97117580       1.12771886       0.00254082       0.00097017      -0.00152750
C       -4.10226403       0.21237297       3.35821028       0.00224227       0.00055385      -0.00065057
C       -2.39307919       1.93408541       2.66200652       0.00470525      -0.00179571      -0.00219465
H       -2.16216321      -0.17505402       2.54852914       0.00113109      -0.00196193      -0.00166453
H       -4.66899945       0.11516783      -2.70764281       0.00191668       0.00032865      -0.00141041
C       -2.39283661      -1.16884115      -3.55817971       0.00044504      -0.00198266      -0.00034849
C       -3.73124469      -2.87729203      -2.28662225       0.00111815      -0.00214642       0.00076987
H       -1.81574872      -2.08856864      -1.72931054       0.00073350      -0.00103771      -0.00006601
H        5.44275678      -2.20492766       0.82365831      -0.00038692      -0.00268398       0.00260243
H        1.56535436      -5.54104872      -0.09427543      -0.00005961      -0.00426725      -0.00360030
H        2.83416181      -5.35387583      -1.30361233       0.00135664      -0.00012234      -0.00156266
H        1.18058422      -5.69792269      -1.81501350       0.00229126       0.00019608      -0.00447840
H        1.52730837      -2.04272869      -2.62571267      -0.00254782       0.00128751       0.00441967
H        1.19013757      -3.63693145      -3.31900957      -0.00185129       0.00247681       0.00126593
H        2.83355882      -3.22012028      -2.82930584      -0.00174962       0.00262465       0.00107431
H        1.77659441       1.17109145       2.15607675      -0.00104852      -0.00221060      -0.00384478
H        3.05872129       0.79432512       3.31743913      -0.00201107       0.00066524      -0.00161224
H        1.43748856       1.18982581       3.89144781      -0.00278079       0.00138210      -0.00404440
H        1.56122314      -2.54460499       4.34744421      -0.00381538       0.00273594       0.00455045
H        1.29514913      -1.00682620       5.18424511      -0.00085308       0.00521556       0.00070559
H        2.91418671      -1.45488461       4.64086843      -0.00176517       0.00098245       0.00169973
H       -5.66923659       1.77791402      -1.19929539       0.00320949       0.00145043      -0.00184286
H       -4.50755426      -0.78465965       3.17358438       0.00186889       0.00054904       0.00007625
H       -4.92336574       0.92507840       3.25786831       0.00244829       0.00073760      -0.00093842
H       -3.74862002       0.25484481       4.39035791       0.00257119       0.00099666      -0.00078066
H       -1.57607110       2.15918971       1.97643605       0.00501841      -0.00393897      -0.00261820
H       -2.01728636       1.99841767       3.68607346       0.00518926      -0.00194144      -0.00236317
H       -3.15535260       2.70626782       2.53681950       0.00622371      -0.00035626      -0.00251984
H       -1.75677230      -0.28773264      -3.47968919      -0.00059705      -0.00108927      -0.00071526
H       -3.29293028      -0.89108666      -4.11181141       0.00040529      -0.00332241      -0.00091855
H       -1.88051890      -1.93811903      -4.14101281       0.00167968      -0.00162260       0.00025708
H       -3.98849460      -3.29160235      -1.30963938       0.00328206      -0.00285987       0.00104019
H       -3.31625741      -3.67797845      -2.90250038       0.00053143      -0.00160167      -0.00032336
H       -4.65949151      -2.53968197      -2.75363243      -0.00003886      -0.00259137       0.00272534
N        1.27545491       1.33724762      -1.93658608      -0.00288833       0.00178874      -0.00271004
C       -1.04558544       4.90896372       1.15416117       0.00033985      -0.00074907       0.00363233
C       -1.89305832       4.57631748       0.10694673      -0.00017027       0.00115755       0.00348791
H        0.80506191       4.44684577       2.13871868       0.00461709       0.00252860      -0.00294597
C        0.14269858       4.21047413       1.31495923       0.00316670       0.00284726      -0.00188975
C       -1.54436832       3.57272052      -0.78190582       0.00116884       0.00546082      -0.00086551
C       -0.33944937       2.88090825      -0.64489897       0.00248486       0.00686271      -0.00475879
C        0.49146451       3.20038858       0.43045251       0.00438032       0.00668635      -0.00585453
H       -2.19154040       3.30250058      -1.60492764       0.00084641       0.00749077      -0.00122471
H        1.41562140       2.66790300       0.59167234       0.00709375       0.01027937      -0.00938261
H       -1.31170776       5.70007099       1.84374256      -0.00137965      -0.00509708       0.00801300
H       -2.82933213       5.10465394      -0.02451159      -0.00193322      -0.00108876       0.00706633
C        2.46042429       2.03757264      -1.50338931      -0.00231272       0.00051605      -0.00288680
C        2.76916046       3.27415317      -2.05191936      -0.00701761       0.00586872       0.00671691
C        3.32065578       1.43835976      -0.59487691       0.00057004      -0.00524869      -0.00955837
C        3.93606501       3.92207788      -1.67545414      -0.00818857       0.00586865       0.01061083
H        2.08996818       3.72465861      -2.76573883      -0.01050674       0.01081079       0.01304976
C        4.48130127       2.09558688      -0.21123792      -0.00017031      -0.00593459      -0.00666826
H        3.06022435       0.46901859      -0.18073706       0.00223809      -0.00864114      -0.01634869
C        4.79102979       3.33689634      -0.75088741      -0.00473749      -0.00030015       0.00353360
H        4.17897768       4.88490503      -2.10593138      -0.01214710       0.01098520       0.01978362
H        5.14371159       1.63497324       0.51111344       0.00217056      -0.01044419      -0.01169285
H        5.69929623       3.84628469      -0.45586227      -0.00556581      -0.00042633       0.00637210
C        1.46866896       0.79283026      -3.29556848      -0.00103201      -0.00676189       0.00099981
H        1.50953022       1.60517633      -4.02533108       0.00490676      -0.01124067      -0.00369919
H        2.40747216       0.24126578      -3.30975096      -0.00328785      -0.01081966       0.00768372
H        0.64126673       0.13924708      -3.54923964      -0.00273274      -0.00527971       0.00251952
