97
Properties=species:S:1:pos:R:3:forces:R:3 spin=1 charge=0 energy=-90906.05719775379 pbc="F F F"
C       -0.09778069       1.81813037      -1.67720863       0.00110704       0.01131995      -0.00987086
O       -0.95165472       1.63160715      -2.55683886       0.00171017       0.01513646      -0.01075123
Ni       0.38832156       0.11926089      -0.73475681      -0.00713355       0.00700142       0.00066355
C       -0.50205398      -1.13435805       0.31278029      -0.00036251      -0.00000712      -0.00051035
N        0.17316624      -2.13633301       0.91653390      -0.00006531       0.00014852      -0.00012288
N       -1.80514537      -1.35000985       0.54957201      -0.00028719      -0.00150095      -0.00048961
C       -0.67270210      -3.05434970       1.67637844       0.00043397       0.00162542       0.00230536
C        1.59787875      -2.18206653       0.92584069      -0.00028940      -0.00112187       0.00091242
C       -2.07507204      -2.61141890       1.24337070       0.00019643      -0.00023043       0.00175857
C       -2.86166484      -0.52123960       0.06191435       0.00008350      -0.00152020      -0.00052680
H       -0.45827039      -4.09181982       1.41460492       0.00098368       0.00100805       0.00521925
H       -0.50917788      -2.93354426       2.75194120       0.00061889       0.00459492       0.00198443
C        2.25847271      -2.86745476      -0.09939370      -0.00028020      -0.00244775       0.00183178
C        2.29777500      -1.51672485       1.93858150      -0.00062523      -0.00182748       0.00149953
H       -2.54062700      -3.32526698       0.55791125       0.00027519      -0.00196421       0.00349631
H       -2.75216419      -2.45533297       2.08409495       0.00040796       0.00116756       0.00170833
C       -3.43596579       0.40415204       0.93764003       0.00114748      -0.00076506      -0.00081071
C       -3.30323346      -0.66812437      -1.25689881       0.00055954      -0.00132201      -0.00063127
C        3.64933608      -2.84951513      -0.11101925      -0.00030559      -0.00290163       0.00236170
C        1.49934027      -3.62043123      -1.17342267      -0.00025590      -0.00201567       0.00141547
C        3.68796284      -1.53339385       1.89589797      -0.00059718      -0.00241687       0.00217297
C        1.58172349      -0.79547490       3.06327970      -0.00117019      -0.00092793       0.00063125
C       -4.45873411       1.21423972       0.45743770       0.00215689       0.00025872      -0.00114572
C       -2.98069578       0.53723002       2.37756094       0.00232669      -0.00091188      -0.00119746
C       -4.32689662       0.16307725      -1.69585049       0.00179702      -0.00014586      -0.00115158
C       -2.73779014      -1.73150600      -2.17762583       0.00075180      -0.00167530      -0.00010471
C        4.35995105      -2.18538184       0.87465069      -0.00046942      -0.00259087       0.00233910
H        4.18359476      -3.35919157      -0.90380399      -0.00014420      -0.00324025       0.00265388
C        1.78472361      -5.12133520      -1.08585774       0.00110185      -0.00195727      -0.00210974
C        1.80922380      -3.07746256      -2.56816617      -0.00168959       0.00106893       0.00232350
H        0.43361432      -3.46692946      -0.99515502      -0.00029696      -0.00347469       0.00243872
H        4.25261241      -1.02181509       2.66638327      -0.00072118      -0.00260218       0.00238011
C        1.98777473       0.67587806       3.14085870      -0.00191960      -0.00058281      -0.00204516
C        1.82489867      -1.50512097       4.39748284      -0.00172263       0.00156863       0.00211429
H        0.51133363      -0.81986999       2.85057724      -0.00111475      -0.00170387       0.00043999
C       -4.89732897       1.09945338      -0.85017604       0.00257756       0.00059989      -0.00134886
H       -4.91220276       1.94805825       1.11311083       0.00291078       0.00099765      -0.00143907
C       -4.11111307       0.18181729       3.34634340       0.00256531       0.00067874      -0.00042796
C       -2.43231725       1.93536448       2.65671283       0.00506522      -0.00172537      -0.00252441
H       -2.16294438      -0.16889863       2.53789853       0.00146391      -0.00199288      -0.00155074
H       -4.67930171       0.08139441      -2.71618637       0.00234211       0.00049884      -0.00140073
C       -2.39646007      -1.18610062      -3.56405233       0.00084966      -0.00168431      -0.00007480
C       -3.71777900      -2.90463679      -2.28758900       0.00122227      -0.00211326       0.00055244
H       -1.80909600      -2.09706713      -1.73403960       0.00083328      -0.00125099       0.00005428
H        5.44250256      -2.17822038       0.84839799      -0.00046335      -0.00252258       0.00243337
H        1.55194134      -5.51175732      -0.09328292       0.00006055      -0.00509509      -0.00359470
H        2.83722027      -5.33247874      -1.28631478       0.00148815      -0.00067614      -0.00150419
H        1.18801123      -5.66743493      -1.81868880       0.00247706      -0.00030157      -0.00446959
H        1.56982954      -2.01431671      -2.62646048      -0.00283783       0.00088926       0.00503817
H        1.22109619      -3.60480482      -3.32196245      -0.00159314       0.00209787       0.00148577
H        2.86467475      -3.20605503      -2.81899876      -0.00164759       0.00259641       0.00160515
H        1.78878325       1.17889519       2.19428209      -0.00170120      -0.00267653      -0.00334400
H        3.04968072       0.78537036       3.37273465      -0.00204650       0.00013309      -0.00171581
H        1.42174379       1.18487315       3.92361219      -0.00252749       0.00063835      -0.00327702
H        1.52702769      -2.55446410       4.35117825      -0.00368518       0.00197003       0.00485526
H        1.26250001      -1.02222361       5.19867213      -0.00073086       0.00439295       0.00113612
H        2.88355390      -1.47486589       4.66468676      -0.00166510       0.00028758       0.00201985
H       -5.69023233       1.74184028      -1.21261975       0.00367557       0.00164990      -0.00181177
H       -4.49937446      -0.82137205       3.15836798       0.00233954       0.00054948       0.00059891
H       -4.94409865       0.88068236       3.24619077       0.00265713       0.00071320      -0.00098309
H       -3.75990234       0.22748393       4.37918832       0.00283676       0.00150569      -0.00056554
H       -1.61907075       2.17793077       1.97269044       0.00543170      -0.00415108      -0.00308083
H       -2.05832103       2.00270821       3.68121783       0.00557719      -0.00150395      -0.00273518
H       -3.20849467       2.69407049       2.53457394       0.00660092      -0.00024981      -0.00312664
H       -1.77007103      -0.29788463      -3.48693722      -0.00030279      -0.00075062      -0.00016487
H       -3.29963089      -0.91958531      -4.11817801       0.00088282      -0.00291367      -0.00071904
H       -1.87565611      -1.95077230      -4.14541246       0.00222171      -0.00109041       0.00037396
H       -3.96936842      -3.31960708      -1.30941795       0.00330450      -0.00289232       0.00076588
H       -3.29651968      -3.70258614      -2.90275922       0.00063765      -0.00158563      -0.00057364
H       -4.64999895      -2.57644630      -2.75340781       0.00016781      -0.00245751       0.00247162
N        1.26436433       1.33161950      -1.94019579      -0.00349340       0.00211147      -0.00327662
C       -1.01387772       4.91083590       1.17390349      -0.00048903      -0.00094117       0.00421669
C       -1.86606673       4.59124193       0.12641788      -0.00032924       0.00175731       0.00328706
H        0.82834014       4.41907602       2.16022205       0.00406629       0.00263930      -0.00269036
C        0.16313165       4.19366185       1.33566010       0.00299416       0.00335029      -0.00203884
C       -1.53250837       3.58247332      -0.76251940       0.00203893       0.00725458      -0.00202925
C       -0.33755687       2.87377155      -0.62586466       0.00351420       0.00880888      -0.00624161
C        0.49684032       3.17921855       0.45040703       0.00525516       0.00836580      -0.00701772
H       -2.18398806       3.32100124      -1.58499566       0.00232573       0.00990464      -0.00305427
H        1.41169165       2.63111651       0.61137864       0.00867412       0.01280305      -0.01083722
H       -1.26764606       5.70651018       1.86285634      -0.00322940      -0.00653549       0.00968971
H       -2.79407881       5.13389660      -0.00510601      -0.00241541      -0.00093816       0.00711280
C        2.45685135       2.01820488      -1.50429088      -0.00312501       0.00089646      -0.00329679
C        2.79504542       3.23959800      -2.06964287      -0.00898657       0.00752921       0.00774846
C        3.29730818       1.41936403      -0.57691557       0.00015997      -0.00612763      -0.01101968
C        3.97065135       3.87148062      -1.69274451      -0.01005787       0.00732262       0.01161015
H        2.13364546       3.69043637      -2.79961418      -0.01355270       0.01362061       0.01543802
C        4.46481799       2.06243043      -0.19001066      -0.00046389      -0.00710444      -0.00817232
H        3.01633753       0.46116853      -0.15035036       0.00167616      -0.01001196      -0.01862200
C        4.80410301       3.28773321      -0.74790588      -0.00565624      -0.00045611       0.00303060
H        4.23738367       4.82065393      -2.13916834      -0.01458679       0.01352304       0.02198090
H        5.10985206       1.60247348       0.54838222       0.00230687      -0.01256621      -0.01400002
H        5.71855561       3.78535197      -0.45179437      -0.00621814      -0.00096035       0.00556250
C        1.44003956       0.81106672      -3.31080861      -0.00024817      -0.00833802       0.00108138
H        1.45759031       1.63453078      -4.02880341       0.00670066      -0.01355063      -0.00485116
H        2.38480836       0.27115867      -3.35087241      -0.00234339      -0.01273837       0.00960919
H        0.61607614       0.15182892      -3.56082880      -0.00171232      -0.00722814       0.00263911
