97
Properties=species:S:1:pos:R:3:forces:R:3 spin=1 charge=0 energy=-90906.02374762714 pbc="F F F"
C       -0.12161309       1.76863646      -1.62319117       0.01324462       0.03032443      -0.02532011
O       -0.99169551       1.56844045      -2.48603252       0.01053146       0.03821756      -0.02448918
Ni       0.40483602       0.08012239      -0.74969278      -0.02059621       0.01294521      -0.00082688
C       -0.50443630      -1.14077358       0.31176695      -0.00077888      -0.00460304       0.00003868
N        0.17281763      -2.13075922       0.93023860      -0.00077069      -0.00427849       0.00222247
N       -1.80740951      -1.35698483       0.54220353      -0.00102129      -0.00593703       0.00118916
C       -0.67240066      -3.05314993       1.68464666      -0.00132910      -0.00153626       0.00607899
C        1.59819353      -2.16562921       0.94029116      -0.00089957      -0.00587437       0.00382991
C       -2.07566302      -2.61087913       1.25079094      -0.00144072      -0.00342442       0.00502932
C       -2.86751850      -0.53423592       0.04961041       0.00095498      -0.00440446       0.00077188
H       -0.45557719      -4.08862228       1.41694045      -0.00233592      -0.00311049       0.01097054
H       -0.51057588      -2.93767784       2.76070778      -0.00186028       0.00214234       0.00588612
C        2.26558613      -2.83318430      -0.09267598      -0.00052241      -0.00531963       0.00383031
C        2.29180635      -1.50448887       1.96049707      -0.00104430      -0.00497913       0.00318544
H       -2.54492155      -3.33018097       0.57400930      -0.00180099      -0.00617192       0.00809869
H       -2.74964685      -2.44454518       2.09189208      -0.00122235      -0.00088035       0.00485841
C       -3.44859489       0.39081880       0.92173710       0.00286519      -0.00238895      -0.00030840
C       -3.30930836      -0.68984725      -1.26825195       0.00211845      -0.00292092       0.00028072
C        3.65652964      -2.80943166      -0.09839514      -0.00061954      -0.00345793       0.00275962
C        1.51412856      -3.57873767      -1.17737075      -0.00017141      -0.00353799       0.00241999
C        3.68214373      -1.51653683       1.92377987      -0.00093620      -0.00303147       0.00232964
C        1.56814638      -0.79113835       3.08540561      -0.00116816      -0.00340414       0.00213656
C       -4.47938005       1.18952135       0.43931545       0.00453913      -0.00070849      -0.00095089
C       -2.99800050       0.53073774       2.36264961       0.00382012      -0.00141471      -0.00082941
C       -4.34122996       0.13004988      -1.70916748       0.00415404      -0.00096871      -0.00069594
C       -2.73616958      -1.75195292      -2.18563966       0.00177916      -0.00286380       0.00021644
C        4.36063987      -2.15618408       0.89897381      -0.00068778      -0.00205488       0.00198056
H        4.19600087      -3.30741933      -0.89500549      -0.00060505      -0.00177035       0.00170151
C        1.78652276      -5.08170433      -1.08256027       0.00069279      -0.00359670      -0.00242838
C        1.84615489      -3.04233304      -2.56968085      -0.00099929       0.00090184       0.00400161
H        0.44752348      -3.41609585      -1.01338541      -0.00015636      -0.00442929       0.00314051
H        4.24190292      -1.01050910       2.70144087      -0.00115898      -0.00152784       0.00155413
C        1.98417795       0.67606824       3.18778701      -0.00120336      -0.00316644      -0.00101470
C        1.79119272      -1.51819826       4.41351343      -0.00204703      -0.00028531       0.00403307
H        0.50024620      -0.80468852       2.85928613      -0.00104426      -0.00370576       0.00166756
C       -4.91928764       1.06465152      -0.86687801       0.00490532      -0.00019901      -0.00107725
H       -4.93954843       1.92123338       1.09269625       0.00572577       0.00032757      -0.00133083
C       -4.12224929       0.14530844       3.32763922       0.00341017       0.00035899      -0.00066813
C       -2.48391116       1.94001940       2.65151126       0.00551172      -0.00153285      -0.00313356
H       -2.16409081      -0.15657120       2.52183169       0.00333315      -0.00190865      -0.00050064
H       -4.69472157       0.04059308      -2.72849662       0.00511184      -0.00022176      -0.00105357
C       -2.40698938      -1.21241836      -3.57734899       0.00094964      -0.00136459       0.00058124
C       -3.70328429      -2.93668774      -2.28524533       0.00152449      -0.00266745       0.00121910
H       -1.80154318      -2.10423450      -1.74378578       0.00205142      -0.00283182      -0.00041966
H        5.44327887      -2.14660732       0.87836312      -0.00066002       0.00013160       0.00073229
H        1.53652418      -5.46755220      -0.09237411      -0.00043503      -0.00732981      -0.00418652
H        2.84056265      -5.30019749      -1.26654445       0.00105365      -0.00232023      -0.00195274
H        1.19667494      -5.62540974      -1.82262994       0.00195572      -0.00124061      -0.00522204
H        1.62218129      -1.97595350      -2.63421917      -0.00263346       0.00072000       0.00827104
H        1.25791803      -3.56321225      -3.32786738      -0.00053932       0.00256304       0.00246121
H        2.90178051      -3.18621721      -2.81089953      -0.00084544       0.00293284       0.00325867
H        1.81007496       1.19232585       2.24387981      -0.00134606      -0.00548237      -0.00243083
H        3.04142120       0.77515086       3.44403356      -0.00122895      -0.00269234      -0.00093828
H        1.40514075       1.18082168       3.96369850      -0.00124304      -0.00155396      -0.00206240
H        1.48675995      -2.56477725       4.35161918      -0.00410510       0.00012219       0.00720935
H        1.22389902      -1.04050608       5.21432454      -0.00103598       0.00302031       0.00285706
H        2.84735687      -1.49835235       4.69142422      -0.00198517      -0.00150118       0.00397087
H       -5.71935671       1.69745133      -1.23059669       0.00601423       0.00088021      -0.00161046
H       -4.48913882      -0.86483825       3.13401316       0.00341505       0.00020846       0.00000154
H       -4.96977921       0.82677168       3.22897396       0.00355270       0.00029229      -0.00233523
H       -3.77413985       0.19336845       4.36144766       0.00260173       0.00138575      -0.00048432
H       -1.67546955       2.20754800       1.97135299       0.00594008      -0.00384961      -0.00375747
H       -2.11344522       2.00834553       3.67720074       0.00562076      -0.00010508      -0.00326644
H       -3.27800842       2.68078842       2.53464507       0.00650583      -0.00067473      -0.00444725
H       -1.78994514      -0.31732460      -3.50759943      -0.00075365       0.00015291       0.00046049
H       -3.31528331      -0.96035751      -4.12985386       0.00052356      -0.00262893       0.00065694
H       -1.88003529      -1.97565575      -4.15507454       0.00229423       0.00019397      -0.00020966
H       -3.94684196      -3.34959320      -1.30422277       0.00375160      -0.00258315       0.00181107
H       -3.27520863      -3.73282550      -2.89805975      -0.00011497      -0.00286933       0.00035539
H       -4.64074610      -2.62133239      -2.74945025       0.00044127      -0.00232461       0.00358106
N        1.25724196       1.31707443      -1.93928441      -0.00928496       0.00857664      -0.00808492
C       -0.96332914       4.91704099       1.18688836      -0.00133128      -0.00215866       0.00630213
C       -1.82981898       4.60494441       0.14861161       0.00389980      -0.00098400       0.00181703
H        0.86640707       4.38398839       2.17674742       0.00055872       0.00564292       0.00633290
C        0.19176902       4.16709072       1.35772717       0.00537558       0.00679561       0.00173068
C       -1.52915992       3.57390043      -0.72744301       0.01601471       0.01003098      -0.00608142
C       -0.35005058       2.83963610      -0.58670252       0.02064410       0.01792643      -0.01068678
C        0.49192287       3.13212366       0.48502565       0.01811052       0.01667823      -0.00650064
H       -2.19467851       3.31733110      -1.54053294       0.02308538       0.00861139      -0.01119332
H        1.38673093       2.55323773       0.64832261       0.02497485       0.02714648      -0.00556705
H       -1.18903574       5.73281714       1.86191995      -0.01074176      -0.01025383       0.01306690
H       -2.74209098       5.17317785       0.01384942      -0.00237690      -0.01084852       0.00424736
C        2.46045031       1.98648664      -1.50036835      -0.01261985       0.00960095      -0.00586642
C        2.84278179       3.17987215      -2.09816833      -0.02044760       0.01863903       0.00824792
C        3.27531479       1.40101590      -0.54004509      -0.01350749      -0.00372211      -0.01524591
C        4.02473109       3.79870619      -1.71930862      -0.01771570       0.01174572       0.01104152
H        2.21239689       3.61921879      -2.86105694      -0.02748887       0.03027410       0.01994183
C        4.44718373       2.03413462      -0.14714448      -0.01156895      -0.01091690      -0.01275816
H        2.97613110       0.45869023      -0.09108492      -0.02155334      -0.00605694      -0.02511918
C        4.82445691       3.23362912      -0.73517331      -0.01323933      -0.00460812      -0.00139919
H        4.32216987       4.72418362      -2.19512140      -0.01781433       0.01763160       0.02227976
H        5.06780838       1.58553999       0.61906944      -0.01019425      -0.02180712      -0.02054150
H        5.74116049       3.72430997      -0.43360407      -0.00984143      -0.01159391      -0.00108762
C        1.39469189       0.85429129      -3.33460271       0.00382092      -0.01158053      -0.00028026
H        1.37072568       1.70425760      -4.02053649       0.01186727      -0.02052857      -0.01225445
H        2.34511016       0.33225057      -3.43357084       0.00639434      -0.01186021       0.02345888
H        0.57185834       0.19305965      -3.58228208       0.00743204      -0.01656682       0.00051142
