97
Properties=species:S:1:pos:R:3:forces:R:3 spin=1 charge=0 energy=-90905.8781892699 pbc="F F F"
C       -0.21258591       1.64975902      -1.52180466       0.29656932       0.15662548      -0.17335781
O       -1.06024785       1.45504713      -2.40025430       0.12016697       0.00266320      -0.03308110
Ni       0.47036025       0.04272176      -0.75619530      -0.03950365      -0.04724067       0.02002501
C       -0.50310622      -1.12685012       0.30684671       0.00748251      -0.02503522       0.01008267
N        0.17525864      -2.11236140       0.92507345      -0.00116973      -0.02756693       0.01965330
N       -1.80400223      -1.34164103       0.53096882       0.00011234      -0.01430251       0.00841003
C       -0.66759749      -3.03949648       1.67423339      -0.00789716      -0.01542977       0.01743577
C        1.60091492      -2.14468865       0.93297787      -0.00262459      -0.02072056       0.01435536
C       -2.07100302      -2.59507677       1.24269670      -0.00586613      -0.00898486       0.01016290
C       -2.86961811      -0.52448652       0.03898209       0.00747704      -0.00691904       0.00230888
H       -0.44714156      -4.07172037       1.39830947      -0.01369734      -0.01725258       0.02045584
H       -0.50298486      -2.92840172       2.74981919      -0.01225466      -0.01137528       0.01771203
C        2.26763135      -2.81358901      -0.10004078      -0.00002447      -0.00810260       0.00770039
C        2.29317435      -1.49203148       1.96014817      -0.00014987      -0.00978324       0.00546867
H       -2.54303657      -3.31293344       0.56689799      -0.00578458      -0.01013003       0.01110429
H       -2.74264180      -2.42521973       2.08452272      -0.00685136      -0.00395233       0.00839137
C       -3.45346104       0.39665777       0.91348736       0.00596481      -0.00238722      -0.00232406
C       -3.31380970      -0.68719835      -1.27708831       0.00589363      -0.00168220       0.00094298
C        3.65892004      -2.79580835      -0.10025079      -0.00015354      -0.00081659       0.00178833
C        1.51655851      -3.56182210      -1.18361012       0.00073806      -0.00150874       0.00259611
C        3.68309724      -1.51147402       1.92832078       0.00053282      -0.00145158       0.00121481
C        1.56779307      -0.78362205       3.08718189       0.00058665      -0.00392374       0.00231398
C       -4.48865511       1.19006177       0.43195460       0.00651206      -0.00087137      -0.00255913
C       -3.00397115       0.53447352       2.35551849       0.00390796       0.00003196      -0.00219449
C       -4.35037282       0.12763934      -1.71633332       0.00651087      -0.00105684      -0.00046483
C       -2.73980038      -1.75246240      -2.19113739       0.00157132      -0.00249167      -0.00018450
C        4.36165802      -2.15002509       0.90261216       0.00145581       0.00015861       0.00071205
H        4.19939463      -3.29555347      -0.89493976      -0.00048486       0.00241038      -0.00089346
C        1.78799439      -5.06498805      -1.08250462       0.00058505      -0.00148048      -0.00338215
C        1.85148486      -3.03110124      -2.57758178       0.00034276       0.00136581       0.00332616
H        0.44940227      -3.39980202      -1.02157097       0.00147974       0.00121865       0.00235146
H        4.24283918      -1.01206114       2.71010826       0.00015198      -0.00062202       0.00142688
C        1.98624367       0.68224230       3.19822171       0.00172813      -0.00378529       0.00054465
C        1.78717092      -1.51820585       4.41182181      -0.00171040       0.00005120       0.00456513
H        0.50005294      -0.79472076       2.85977509       0.00142774      -0.00193301      -0.00074556
C       -4.92951223       1.06150143      -0.87376690       0.00549789      -0.00039670      -0.00202413
H       -4.95153633       1.92012359       1.08529623       0.00615644      -0.00069869      -0.00250778
C       -4.12577531       0.13918875       3.31975287       0.00307371       0.00048093      -0.00311230
C       -2.49836389       1.94514407       2.65244075       0.00339697       0.00034131      -0.00288447
H       -2.16635163      -0.14883680       2.51326233       0.00420886       0.00078570      -0.00228234
H       -4.70590765       0.03579085      -2.73475987       0.00570841      -0.00184717      -0.00045553
C       -2.41608981      -1.22456892      -3.58853029      -0.00276564      -0.00308613      -0.00153526
C       -3.70316161      -2.94121762      -2.28196316       0.00059476      -0.00208779       0.00328651
H       -1.80285596      -2.09990380      -1.74990273       0.00270119      -0.00085049      -0.00202405
H        5.44423687      -2.14512434       0.88584079       0.00163428      -0.00019380       0.00040425
H        1.53565405      -5.44759418      -0.09160026      -0.00017207      -0.00350196      -0.00449295
H        2.84206628      -5.28532221      -1.26366679       0.00125628       0.00017077      -0.00254193
H        1.19915119      -5.61082418      -1.82173275       0.00151383       0.00041136      -0.00556166
H        1.63260312      -1.96381077      -2.65001684      -0.00478119       0.00067582       0.00912745
H        1.26270160      -3.55327839      -3.33426777       0.00002718       0.00292863       0.00206114
H        2.90695085      -3.17933333      -2.81624162       0.00037848       0.00353745       0.00093911
H        1.82037304       1.20394544       2.25615717      -0.00013518      -0.00569608      -0.00032340
H        3.04216050       0.77755733       3.46071692       0.00144315      -0.00299148       0.00279997
H        1.40359379       1.18484232       3.97270754       0.00072566      -0.00190204      -0.00110390
H        1.48134507      -2.56407144       4.34449781      -0.00390799       0.00069148       0.00610782
H        1.21891701      -1.04344220       5.21358475      -0.00104225       0.00288416       0.00342762
H        2.84267231      -1.50109851       4.69210223      -0.00141093      -0.00166031       0.00428607
H       -5.73211199       1.69141382      -1.23693792       0.00454114      -0.00115838      -0.00210638
H       -4.48778557      -0.87238309       3.12433701       0.00396717       0.00027769      -0.00372837
H       -4.97683856       0.81658967       3.22407742       0.00259832      -0.00008848      -0.00445782
H       -3.77679394       0.18657516       4.35335654       0.00180478       0.00054120      -0.00258215
H       -1.69067587       2.22168294       1.97553360       0.00403719      -0.00094288      -0.00301346
H       -2.12956580       2.00927058       3.67896766       0.00259285       0.00093864      -0.00243282
H       -3.29662884       2.68175485       2.53887127       0.00349351       0.00067266      -0.00349246
H       -1.79690889      -0.33136725      -3.52643419      -0.00421566      -0.00099311      -0.00332820
H       -3.32634569      -0.97537073      -4.13891058      -0.00414324      -0.00606693      -0.00102484
H       -1.89252819      -1.99364442      -4.16153634      -0.00378957      -0.00411359      -0.00211012
H       -3.94405571      -3.35169376      -1.29930391       0.00359451      -0.00032461       0.00473257
H       -3.27310891      -3.73769649      -2.89298896      -0.00181302      -0.00380571       0.00347975
H       -4.64218438      -2.63093407      -2.74629317      -0.00099226      -0.00250843       0.00579554
N        1.30007006       1.26689898      -1.92548396      -0.19135422       0.13265717       0.00593921
C       -0.94119891       4.92931930       1.17579096       0.00693880      -0.01112553      -0.00078642
C       -1.83369931       4.62232520       0.15727870       0.02236319      -0.04348483      -0.00544161
H        0.89512667       4.37126283       2.14009079       0.00119305       0.00629499       0.02553210
C        0.19467502       4.15017755       1.34466467       0.01279757       0.00435586       0.01693246
C       -1.58417459       3.55581275      -0.69612472       0.06023575      -0.03144044      -0.01624159
C       -0.42888558       2.78302586      -0.54607689       0.10978008       0.01982900      -0.03990610
C        0.44046286       3.08149068       0.49650930       0.05419646       0.02493148       0.00604409
H       -2.27622805       3.30904545      -1.49076900       0.05899019      -0.03187837      -0.01584610
H        1.31888512       2.47336363       0.64321913       0.05180084       0.03231946       0.02971462
H       -1.13132680       5.76506092       1.83783016      -0.00638034      -0.00509270      -0.01167623
H       -2.72533416       5.22442223       0.02340239       0.01260670      -0.05548777      -0.01042604
C        2.50625728       1.93660448      -1.49661569      -0.09467185       0.07155716       0.03272740
C        2.90095451       3.12012253      -2.11300729      -0.05710952       0.04111210       0.01651059
C        3.32229036       1.39268639      -0.50619006      -0.07363177      -0.00020497      -0.02460009
C        4.06531494       3.76651365      -1.72557694      -0.03000673       0.00811135       0.00024443
H        2.28539608       3.53681626      -2.89916215      -0.04295611       0.04921543       0.01200465
C        4.47921749       2.05233282      -0.10447385      -0.04639463      -0.02720891      -0.03486547
H        3.04725207       0.45198218      -0.03932298      -0.07111415       0.00033191      -0.02315824
C        4.85462436       3.24275581      -0.71084009      -0.03690848      -0.01790974      -0.01055210
H        4.35305705       4.68857025      -2.21441929      -0.01167943       0.00235007       0.00188250
H        5.09273076       1.63169077       0.68439711      -0.04326457      -0.03831658      -0.04163412
H        5.75726575       3.75630018      -0.40264364      -0.03159000      -0.02875902      -0.00104193
C        1.37641087       0.88441456      -3.34767771      -0.04160324       0.00979813       0.01211112
H        1.32790459       1.76575493      -3.99158473      -0.00056520      -0.01064626      -0.01474650
H        2.30942207       0.35366607      -3.54753817      -0.00848630       0.02612920       0.14059262
H        0.53406466       0.24693540      -3.59335493      -0.01198859      -0.01158011      -0.01249692
