97
Properties=species:S:1:pos:R:3:forces:R:3 spin=1 charge=0 energy=-90905.80529135883 pbc="F F F"
C       -0.28679905       1.60962754      -1.47792665       0.17403956       0.07871602      -0.10060540
O       -1.09121888       1.45278782      -2.39054765       0.05996730      -0.00798057      -0.01470120
Ni       0.48067712       0.05339456      -0.76183108      -0.01093481      -0.03670996       0.01313425
C       -0.50459103      -1.12116123       0.30404664       0.00433099      -0.01388096       0.00615138
N        0.17561219      -2.10573989       0.92069529      -0.00043003      -0.01428864       0.01136034
N       -1.80374291      -1.33824933       0.52831826       0.00045611      -0.00729196       0.00308146
C       -0.66590421      -3.03531793       1.67076372      -0.00445521      -0.00702572       0.01035532
C        1.60162456      -2.13989086       0.92992304      -0.00132841      -0.01013456       0.00774774
C       -2.06967906      -2.59226945       1.24075044      -0.00324460      -0.00328108       0.00594481
C       -2.87095181      -0.52270692       0.03767944       0.00474929      -0.00298757      -0.00049720
H       -0.44434144      -4.06727997       1.39456697      -0.00757038      -0.00807095       0.01243981
H       -0.50027715      -2.92482776       2.74624971      -0.00667384      -0.00403452       0.01033139
C        2.26766005      -2.81154701      -0.10173548      -0.00002603      -0.00344231       0.00401335
C        2.29331462      -1.49005645       1.95935487       0.00026926      -0.00552307       0.00377213
H       -2.54213494      -3.31023339       0.56543419      -0.00402122      -0.00453596       0.00785891
H       -2.74090741      -2.42259947       2.08293648      -0.00322223       0.00168225       0.00492896
C       -3.45420497       0.39755319       0.91322193       0.00438446      -0.00025419      -0.00302257
C       -3.31484092      -0.68681613      -1.27801790       0.00397957      -0.00041734      -0.00119923
C        3.65897339      -2.79549174      -0.10056003       0.00007194       0.00004411       0.00103792
C        1.51639220      -3.56105994      -1.18430679       0.00040008       0.00019498       0.00113715
C        3.68305277      -1.51157807       1.92853229       0.00064424      -0.00154522       0.00165128
C        1.56773734      -0.78284806       3.08702472       0.00057452      -0.00224178       0.00196135
C       -4.48951231       1.19059253       0.43173762       0.00451193       0.00037654      -0.00310073
C       -3.00422347       0.53478004       2.35523549       0.00327848       0.00083463      -0.00288442
C       -4.35145728       0.12795810      -1.71695531       0.00410052      -0.00017736      -0.00187364
C       -2.74015520      -1.75228222      -2.19156696       0.00068957      -0.00197530      -0.00116578
C        4.36135500      -2.15026755       0.90275693       0.00100797      -0.00026184       0.00091282
H        4.19951144      -3.29570547      -0.89480539      -0.00017326       0.00191292      -0.00053434
C        1.78810591      -5.06423411      -1.08241955       0.00090549       0.00026877      -0.00321517
C        1.85116525      -3.03047095      -2.57830888      -0.00031754       0.00251647       0.00165883
H        0.44904549      -3.39996084      -1.02203559       0.00074529       0.00102781       0.00132069
H        4.24293429      -1.01249443       2.71032082       0.00049964      -0.00186627       0.00219442
C        1.98614014       0.68293929       3.19831410       0.00158800      -0.00223065       0.00076548
C        1.78729669      -1.51811532       4.41133179      -0.00135840       0.00031287       0.00346894
H        0.49982696      -0.79426059       2.86020549       0.00110650      -0.00080238       0.00000632
C       -4.93023178       1.06178991      -0.87406864       0.00369679       0.00022265      -0.00271975
H       -4.95226592       1.92066595       1.08504081       0.00436335       0.00052673      -0.00309565
C       -4.12586305       0.13912773       3.31954870       0.00287676       0.00039466      -0.00355132
C       -2.49867424       1.94538614       2.65260601       0.00272429       0.00091118      -0.00249321
H       -2.16658207      -0.14860140       2.51299666       0.00363659       0.00140469      -0.00300722
H       -4.70686347       0.03623679      -2.73535042       0.00343018      -0.00082255      -0.00178813
C       -2.41637189      -1.22519960      -3.58921696      -0.00354960      -0.00482332      -0.00324132
C       -3.70326877      -2.94125920      -2.28188885       0.00031131      -0.00211422       0.00352744
H       -1.80316728      -2.09974771      -1.75026998       0.00193075      -0.00035110      -0.00286282
H        5.44388424      -2.14526346       0.88600568       0.00107980      -0.00079577       0.00087430
H        1.53577953      -5.44688841      -0.09150084       0.00013126      -0.00178196      -0.00429002
H        2.84208845      -5.28470201      -1.26367126       0.00139006       0.00151869      -0.00252337
H        1.19929537      -5.61024420      -1.82153533       0.00185160       0.00171808      -0.00506419
H        1.63328200      -1.96303172      -2.65185722      -0.00375353       0.00210267       0.00511505
H        1.26249184      -3.55293482      -3.33477969      -0.00048727       0.00365515       0.00082668
H        2.90662686      -3.17891511      -2.81656160      -0.00025444       0.00431356       0.00011824
H        1.82117968       1.20495329       2.25629613       0.00124453      -0.00348685       0.00002286
H        3.04204038       0.77793023       3.46064552       0.00126289      -0.00215817       0.00288551
H        1.40352571       1.18533021       3.97288142       0.00055893      -0.00077254      -0.00079481
H        1.48145557      -2.56399899       4.34401159      -0.00362942       0.00092774       0.00494275
H        1.21910212      -1.04345641       5.21318542      -0.00064300       0.00282546       0.00250831
H        2.84271909      -1.50102173       4.69171698      -0.00123466      -0.00149994       0.00349382
H       -5.73261781       1.69185534      -1.23721785       0.00314622      -0.00023713      -0.00273658
H       -4.48787934      -0.87245449       3.12419792       0.00378500       0.00015132      -0.00409361
H       -4.97693181       0.81649475       3.22406736       0.00233348      -0.00029008      -0.00446237
H       -3.77674363       0.18654856       4.35307974       0.00192244       0.00048071      -0.00318783
H       -1.69100755       2.22241815       1.97597131       0.00332574       0.00049133      -0.00217297
H       -2.12990446       2.00920432       3.67911132       0.00186186       0.00079192      -0.00203382
H       -3.29699099       2.68187810       2.53915516       0.00274415       0.00104182      -0.00282904
H       -1.79678636      -0.33247485      -3.52775954      -0.00421896      -0.00368697      -0.00632264
H       -3.32665502      -0.97573899      -4.13932002      -0.00492607      -0.00710528      -0.00219699
H       -1.89293547      -1.99444909      -4.16186270      -0.00493653      -0.00641545      -0.00290757
H       -3.94412472      -3.35167468      -1.29919316       0.00338302      -0.00024081       0.00502983
H       -3.27308232      -3.73761424      -2.89290023      -0.00175647      -0.00357338       0.00375083
H       -4.64228045      -2.63112432      -2.74624027      -0.00124547      -0.00291337       0.00594935
N        1.34724923       1.23356772      -1.92761733      -0.12341804       0.08232382       0.00792343
C       -0.94089298       4.93239920       1.17540734       0.00746601      -0.00476251      -0.00107869
C       -1.83811584       4.63275376       0.15904775       0.01258268      -0.02368001      -0.00046954
H        0.89756106       4.37046421       2.13213720       0.00694044       0.00454726       0.00842934
C        0.19351032       4.14932433       1.33962580       0.01004876       0.00257582       0.00694835
C       -1.59879776       3.56263804      -0.69109455       0.02909401      -0.02040089      -0.00481553
C       -0.45579120       2.77716059      -0.53557954       0.05613351       0.00579390      -0.01889615
C        0.42816657       3.07483691       0.49480702       0.02838013       0.01141613       0.00233192
H       -2.29115238       3.31536541      -1.48511953       0.02655436      -0.01846869      -0.00371506
H        1.30719782       2.46488559       0.63551804       0.02644279       0.01394110       0.01235276
H       -1.12698189       5.76725574       1.83957402       0.00351955       0.00040340      -0.00839113
H       -2.72739621       5.23778371       0.02668783       0.00875479      -0.02769635      -0.00337914
C        2.52908785       1.91859850      -1.50510651      -0.05242340       0.03821696       0.01767916
C        2.91397050       3.11049304      -2.11622943      -0.03075884       0.02171675       0.01122876
C        3.33980647       1.39207127      -0.50062416      -0.03846024      -0.00377034      -0.01712081
C        4.07112410       3.76533666      -1.72369701      -0.01714410       0.00529218       0.00344105
H        2.29486337       3.52574709      -2.90094114      -0.02277531       0.02602661       0.00862881
C        4.48941204       2.05867466      -0.09526079      -0.02413403      -0.01631148      -0.01871416
H        3.06427978       0.45076731      -0.03496231      -0.03586007      -0.00234546      -0.01354268
C        4.86203755       3.24753731      -0.70645645      -0.02151115      -0.00937579      -0.00205739
H        4.35398516       4.68947614      -2.21191322      -0.00912941       0.00406717       0.00694182
H        5.10195649       1.64042503       0.69523028      -0.02401201      -0.02003813      -0.01974444
H        5.76295059       3.76399015      -0.39977868      -0.02060556      -0.01271596       0.00583085
C        1.38559263       0.88285157      -3.35161218      -0.02691896       0.00747912       0.00747515
H        1.32735178       1.76984063      -3.98811961       0.00123801      -0.00301785      -0.00693838
H        2.30985008       0.34744255      -3.58417245      -0.00897620       0.01229160       0.07561365
H        0.53523551       0.25159492      -3.59131762      -0.01192773      -0.00084567      -0.01106656
