97
Properties=species:S:1:pos:R:3:forces:R:3 spin=1 charge=0 energy=-90905.81256407917 pbc="F F F"
C       -0.42745561       1.54544359      -1.39227190      -0.09141380      -0.04485692       0.05957324
O       -1.14966438       1.44506511      -2.36254275      -0.04549206      -0.01624699       0.02984012
Ni       0.49173605       0.07544936      -0.77658611       0.00956874       0.00801094      -0.01260312
C       -0.50682521      -1.11002740       0.29805276       0.00019054       0.00593111      -0.00508777
N        0.17627262      -2.09346683       0.91288129       0.00077295       0.00767933      -0.00325595
N       -1.80347306      -1.33169551       0.52358954       0.00124079       0.00429091      -0.00550690
C       -0.66259190      -3.02704070       1.66425015       0.00135644       0.00747229      -0.00131586
C        1.60303900      -2.13162364       0.92489193       0.00125309       0.00447035      -0.00157455
C       -2.06710902      -2.58658355       1.23722143       0.00135093       0.00662528      -0.00038316
C       -2.87373627      -0.51969976       0.03523072       0.00002735       0.00250720      -0.00470389
H       -0.43906610      -4.05843212       1.38714002       0.00152728       0.00721594      -0.00038098
H       -0.49512598      -2.91786251       2.73955615       0.00240690       0.00814450      -0.00161229
C        2.26784210      -2.80752566      -0.10461619       0.00020158       0.00309860      -0.00128439
C        2.29344525      -1.48636061       1.95801332       0.00056278       0.00086892       0.00112656
H       -2.54019966      -3.30471333       0.56261599      -0.00064284       0.00505145       0.00284497
H       -2.73761623      -2.41754822       2.08009346       0.00254786       0.01039700      -0.00020745
C       -3.45604475       0.39917684       0.91246031       0.00154142       0.00263319      -0.00402276
C       -3.31753366      -0.68660323      -1.27972866      -0.00045734       0.00014400      -0.00403050
C        3.65907740      -2.79450637      -0.10095477       0.00016681       0.00116510       0.00011492
C        1.51628608      -3.55877046      -1.18583912      -0.00003546       0.00336829      -0.00144818
C        3.68288548      -1.51172130       1.92918326       0.00036997      -0.00200812       0.00238047
C        1.56763669      -0.78109455       3.08677312       0.00049757       0.00062889       0.00130549
C       -4.49145337       1.19171327       0.43092198       0.00155489       0.00243498      -0.00411989
C       -3.00515594       0.53542314       2.35446623       0.00213402       0.00193006      -0.00394696
C       -4.35395513       0.12819816      -1.71832081       0.00010967       0.00059074      -0.00399181
C       -2.74115327      -1.75212235      -2.19243449      -0.00086484      -0.00149366      -0.00256395
C        4.36081116      -2.15056808       0.90338158      -0.00005104      -0.00115910       0.00160750
H        4.19979895      -3.29525524      -0.89457782       0.00017675       0.00199068      -0.00030542
C        1.78823202      -5.06204262      -1.08242532       0.00110349       0.00330826      -0.00316696
C        1.85106984      -3.02855996      -2.57992343      -0.00110071       0.00528297      -0.00102208
H        0.44859858      -3.39912185      -1.02324836      -0.00029575       0.00139585      -0.00047043
H        4.24298731      -1.01313807       2.71095676       0.00070595      -0.00300907       0.00267073
C        1.98615404       0.68447391       3.19895274       0.00152301       0.00030856       0.00122041
C        1.78729015      -1.51786326       4.41040748      -0.00096464       0.00078480       0.00171216
H        0.49938377      -0.79296127       2.86103134       0.00037325       0.00105854       0.00144179
C       -4.93182578       1.06242805      -0.87504443       0.00136012       0.00156541      -0.00402758
H       -4.95402188       1.92184166       1.08409051       0.00189404       0.00269643      -0.00431740
C       -4.12637014       0.13869386       3.31886126       0.00226976       0.00010438      -0.00447902
C       -2.50028951       1.94604943       2.65311860       0.00089724       0.00193022      -0.00167570
H       -2.16723302      -0.14779116       2.51203214       0.00270078       0.00249378      -0.00422922
H       -4.70914642       0.03675329      -2.73665713      -0.00007028       0.00055483      -0.00381544
C       -2.41736064      -1.22676053      -3.59071951      -0.00492252      -0.00692550      -0.00554837
C       -3.70354902      -2.94173942      -2.28178898      -0.00027184      -0.00251171       0.00368776
H       -1.80401760      -2.09926029      -1.75092896       0.00057322       0.00037418      -0.00396947
H        5.44325775      -2.14533039       0.88669247      -0.00013679      -0.00113054       0.00151349
H        1.53587791      -5.44467931      -0.09143788       0.00049975       0.00116631      -0.00411174
H        2.84209041      -5.28273694      -1.26365113       0.00133990       0.00426723      -0.00271243
H        1.19957190      -5.60842994      -1.82136709       0.00223062       0.00412858      -0.00465799
H        1.63600121      -1.96062153      -2.65517627      -0.00003494       0.00560183      -0.00080494
H        1.26244714      -3.55156308      -3.33596330      -0.00105771       0.00528711      -0.00103632
H        2.90644446      -3.17807274      -2.81734847      -0.00118142       0.00566798      -0.00121991
H        1.82366165       1.20730446       2.25704467       0.00511164       0.00026268       0.00062905
H        3.04195493       0.77871546       3.46123484       0.00112037      -0.00075075       0.00279640
H        1.40345370       1.18644166       3.97364047       0.00060539       0.00106311      -0.00000215
H        1.48137516      -2.56375453       4.34278463      -0.00326222       0.00133862       0.00300967
H        1.21921113      -1.04350964       5.21251286       0.00004211       0.00291325       0.00117825
H        2.84257863      -1.50094034       4.69096448      -0.00105005      -0.00111902       0.00193123
H       -5.73383415       1.69273268      -1.23822963       0.00156793       0.00166245      -0.00406321
H       -4.48813668      -0.87298207       3.12359582       0.00329158      -0.00018250      -0.00477314
H       -4.97759437       0.81585106       3.22391486       0.00170441      -0.00068937      -0.00455704
H       -3.77685816       0.18614850       4.35220215       0.00195059       0.00026672      -0.00438995
H       -1.69252634       2.22449172       1.97739738       0.00164657       0.00364213       0.00008372
H       -2.13171156       2.00901722       3.67962759      -0.00020629       0.00047641      -0.00126728
H       -3.29887405       2.68215424       2.54001047       0.00067407       0.00158495      -0.00152480
H       -1.79665829      -0.33515654      -3.53116971      -0.00369134      -0.00773334      -0.01156084
H       -3.32768781      -0.97683109      -4.14032777      -0.00637942      -0.00835075      -0.00357709
H       -1.89437010      -1.99658583      -4.16254205      -0.00700088      -0.00932847      -0.00395544
H       -3.94418100      -3.35189529      -1.29895007       0.00305580      -0.00022506       0.00540273
H       -3.27291206      -3.73784952      -2.89262437      -0.00176752      -0.00356505       0.00413592
H       -4.64261716      -2.63213298      -2.74622154      -0.00184256      -0.00394419       0.00600982
N        1.45854051       1.14749256      -1.93781567       0.07655571      -0.06552998      -0.01023632
C       -0.93968385       4.93882161       1.17383748       0.00913600       0.00600818      -0.00405372
C       -1.84663646       4.65285046       0.16219332      -0.00208168       0.01226326       0.00405048
H        0.90223068       4.36841904       2.11676883       0.01462151       0.00136826      -0.01863025
C        0.19057599       4.14694330       1.33074556       0.00542892      -0.00119669      -0.00982023
C       -1.62840121       3.57470471      -0.68008451      -0.02141783       0.00290557       0.01283085
C       -0.50768512       2.76558081      -0.51439741      -0.03577202      -0.01341311       0.01785722
C        0.40330191       3.06113316       0.49361997      -0.01418856      -0.01222841      -0.00121700
H       -2.32308669       3.32550795      -1.47121110      -0.02671429       0.00003181       0.01847709
H        1.28274041       2.44680450       0.62310448      -0.01440385      -0.01609499      -0.01033170
H       -1.11644985       5.77322228       1.84096085       0.01993832       0.00908330      -0.00504503
H       -2.73030053       5.26532490       0.03322286       0.00258965       0.01902371       0.00741030
C        2.57717639       1.87760087      -1.52038750       0.03230827      -0.03159942      -0.01125954
C        2.94245366       3.08430637      -2.12595009       0.01735561      -0.01939997      -0.00443522
C        3.37542761       1.39103064      -0.48290941       0.02364191      -0.00406152       0.01200235
C        4.08279782       3.75939918      -1.72074344       0.00221420      -0.00213538       0.00954837
H        2.31915320       3.49503864      -2.91061674       0.01559150      -0.02155605      -0.00468212
C        4.50822344       2.07402321      -0.07200246       0.00865795       0.01038578       0.02042566
H        3.10232766       0.44667279      -0.02177770       0.02815092      -0.00822110       0.00617229
C        4.87583870       3.25906676      -0.69556197       0.00273152       0.01081420       0.01603292
H        4.35490940       4.68727770      -2.20913389      -0.00787949       0.00330157       0.01334638
H        5.11970159       1.66235514       0.72214524       0.00713922       0.01560879       0.02405076
H        5.77254521       3.78286696      -0.39224681      -0.00282581       0.01859443       0.01745549
C        1.40122644       0.88160755      -3.36581010       0.00428062       0.00378368      -0.01515155
H        1.31072177       1.78643204      -3.97520057      -0.01976630       0.02114372       0.01159886
H        2.30633440       0.34794559      -3.67584017      -0.01202920       0.00619081      -0.07820680
H        0.53730714       0.25868292      -3.58667678      -0.00686797       0.01232311      -0.00112387
