97
Properties=species:S:1:pos:R:3:forces:R:3 spin=1 charge=0 energy=-90905.86472434223 pbc="F F F"
C       -0.49051282       1.52542721      -1.35588916      -0.14238088      -0.05002104       0.08507086
O       -1.18406587       1.43890411      -2.34372223      -0.08196048      -0.02092368       0.04831633
Ni       0.49268565       0.08818378      -0.78747200       0.00435772       0.02450604      -0.02624618
C       -0.50698464      -1.10398240       0.29512250       0.00132735       0.01156053      -0.00778505
N        0.17710564      -2.08692685       0.90918051       0.00219907       0.01367363      -0.00649477
N       -1.80303765      -1.32811539       0.52098830       0.00223736       0.00760855      -0.00806667
C       -0.66057435      -3.02227151       1.66056818       0.00346609       0.01210583      -0.00501469
C        1.60416161      -2.12787172       0.92281871       0.00280847       0.00685703      -0.00292551
C       -2.06549599      -2.58329144       1.23505027       0.00314749       0.00982162      -0.00279427
C       -2.87502649      -0.51813286       0.03382205      -0.00070576       0.00402957      -0.00599275
H       -0.43588905      -4.05327710       1.38280178       0.00467975       0.01215833      -0.00456836
H       -0.49227469      -2.91385962       2.73581002       0.00507588       0.01202559      -0.00529111
C        2.26825058      -2.80555519      -0.10574469       0.00091973       0.00412498      -0.00190371
C        2.29380354      -1.48470452       1.95757184       0.00136455       0.00177767       0.00083659
H       -2.53890870      -3.30163261       0.56091403       0.00083697       0.00790290       0.00099052
H       -2.73560965      -2.41454658       2.07832889       0.00463465       0.01334179      -0.00221712
C       -3.45709635       0.40011297       0.91179404       0.00084465       0.00362644      -0.00469545
C       -3.31917032      -0.68651002      -1.28068642      -0.00195796       0.00041753      -0.00478554
C        3.65939585      -2.79406375      -0.10088650       0.00072528       0.00090416       0.00036768
C        1.51644073      -3.55709071      -1.18663354       0.00018033       0.00478593      -0.00203760
C        3.68309667      -1.51196616       1.92985315       0.00102017      -0.00265906       0.00303344
C        1.56774750      -0.78008585       3.08661344       0.00093067       0.00147552       0.00090397
C       -4.49267024       1.19232851       0.43024625       0.00061079       0.00315227      -0.00472303
C       -3.00586312       0.53586390       2.35388148       0.00159313       0.00246496      -0.00446979
C       -4.35556318       0.12819518      -1.71915485      -0.00136833       0.00075992      -0.00463406
C       -2.74185058      -1.75205314      -2.19293762      -0.00157620      -0.00126086      -0.00297599
C        4.36086468      -2.15082137       0.90401548       0.00039124      -0.00185772       0.00221650
H        4.20019327      -3.29488735      -0.89434813       0.00071065       0.00184060      -0.00011107
C        1.78824208      -5.06047333      -1.08253752       0.00101644       0.00456874      -0.00338804
C        1.85130466      -3.02718077      -2.58083917      -0.00105682       0.00646791      -0.00180491
H        0.44859227      -3.39792675      -1.02391185      -0.00020327       0.00258038      -0.00079399
H        4.24322585      -1.01363086       2.71169150       0.00133028      -0.00369699       0.00331065
C        1.98632193       0.68538554       3.19946083       0.00187513       0.00113988       0.00129061
C        1.78717725      -1.51762409       4.40992080      -0.00081076       0.00120817       0.00117246
H        0.49935035      -0.79204043       2.86124821       0.00071317       0.00185400       0.00127665
C       -4.93292894       1.06277022      -0.87578516       0.00043940       0.00213112      -0.00464242
H       -4.95525970       1.92243350       1.08337175       0.00089824       0.00333405      -0.00487742
C       -4.12678473       0.13829091       3.31829271       0.00196916      -0.00003607      -0.00498146
C       -2.50167154       1.94653731       2.65359578      -0.00018106       0.00244710      -0.00100710
H       -2.16765536      -0.14711034       2.51121114       0.00238489       0.00317699      -0.00500835
H       -4.71075198       0.03683576      -2.73745531      -0.00163026       0.00081755      -0.00444725
C       -2.41810113      -1.22798802      -3.59172171      -0.00560014      -0.00806624      -0.00644488
C       -3.70372145      -2.94213388      -2.28174730      -0.00056432      -0.00263218       0.00371259
H       -1.80466710      -2.09892696      -1.75124999      -0.00020826       0.00071143      -0.00416236
H        5.44325910      -2.14548044       0.88736341       0.00025576      -0.00168501       0.00203841
H        1.53582928      -5.44301163      -0.09148864       0.00050530       0.00255332      -0.00423353
H        2.84205919      -5.28134752      -1.26361818       0.00121826       0.00538675      -0.00287931
H        1.19968034      -5.60709542      -1.82138409       0.00216337       0.00514889      -0.00473538
H        1.63826809      -1.95886361      -2.65648610       0.00218788       0.00719423      -0.00137884
H        1.26251919      -3.55040140      -3.33662600      -0.00132039       0.00624717      -0.00149588
H        2.90659284      -3.17769648      -2.81784578      -0.00123675       0.00575581      -0.00178211
H        1.82525353       1.20871446       2.25760859       0.00649284       0.00142820       0.00070882
H        3.04201704       0.77920669       3.46199958       0.00136812      -0.00016069       0.00309409
H        1.40339356       1.18710105       3.97413085       0.00070725       0.00167076       0.00005281
H        1.48119611      -2.56350427       4.34196047      -0.00312046       0.00174062       0.00218552
H        1.21909071      -1.04352602       5.21217285       0.00016509       0.00309869       0.00074088
H        2.84238982      -1.50092331       4.69063662      -0.00095935      -0.00090006       0.00148485
H       -5.73479829       1.69315979      -1.23898891       0.00074358       0.00237532      -0.00467480
H       -4.48827351      -0.87347597       3.12303723       0.00310339      -0.00037120      -0.00528164
H       -4.97818916       0.81524743       3.22374189       0.00128499      -0.00089802      -0.00467850
H       -3.77699816       0.18573600       4.35152321       0.00190447       0.00006905      -0.00503723
H       -1.69376157       2.22580944       1.97854209       0.00083046       0.00469359       0.00146947
H       -2.13332649       2.00887731       3.68017071      -0.00161016       0.00029571      -0.00049201
H       -3.30049555       2.68235636       2.54071288      -0.00054708       0.00193511      -0.00069774
H       -1.79666094      -0.33706517      -3.53362649      -0.00354037      -0.00958059      -0.01407001
H       -3.32837270      -0.97770149      -4.14113811      -0.00692414      -0.00893813      -0.00438704
H       -1.89550590      -1.99836350      -4.16294845      -0.00824611      -0.01115011      -0.00425254
H       -3.94419005      -3.35209418      -1.29880446       0.00283604      -0.00012287       0.00551708
H       -3.27272324      -3.73813643      -2.89238898      -0.00176740      -0.00366052       0.00440336
H       -4.64286108      -2.63296518      -2.74625593      -0.00220661      -0.00443097       0.00593514
N        1.52502544       1.08418349      -1.94579999       0.14752486      -0.14250857      -0.02085380
C       -0.93919520       4.94347083       1.17395769       0.00893362       0.01145203      -0.00284192
C       -1.85260333       4.66433160       0.16593431      -0.00919930       0.02376053       0.00942940
H        0.90523948       4.36758572       2.10800744       0.01756174       0.00141892      -0.02721613
C        0.18806599       4.14617376       1.32694387       0.00225532      -0.00084426      -0.01274653
C       -1.64754714       3.58099519      -0.67123284      -0.04182643       0.00959368       0.02348878
C       -0.53809664       2.75940855      -0.50053075      -0.06662627      -0.01799295       0.03313174
C        0.38768757       3.05398496       0.49439375      -0.03033824      -0.01785757       0.00032111
H       -2.34347153       3.33200816      -1.46139244      -0.04728998       0.00759214       0.02880456
H        1.26661556       2.43613296       0.61674185      -0.03128819      -0.02552496      -0.01624315
H       -1.10912340       5.77875924       1.84157957       0.02714144       0.01597474      -0.00413352
H       -2.73179414       5.28286557       0.03808300       0.00049657       0.03706720       0.01305045
C        2.60523443       1.85154279      -1.52779244       0.06033779      -0.05861877      -0.01805404
C        2.95827738       3.06526727      -2.13211721       0.03061595      -0.03960298      -0.01014943
C        3.39574285       1.38924155      -0.47111459       0.04300438      -0.00622451       0.02416789
C        4.08829205       3.75400268      -1.71927933       0.00509333      -0.00768675       0.01136089
H        2.33563532       3.47227593      -2.91938044       0.03175901      -0.04583103      -0.01466784
C        4.51843383       2.08306595      -0.05783576       0.01772274       0.01943597       0.03402437
H        3.12609038       0.44319679      -0.01183776       0.05200054      -0.01212144       0.01646027
C        4.88232449       3.26607130      -0.68899563       0.00713425       0.01829502       0.02210669
H        4.35350172       4.68376987      -2.20850722      -0.01225113      -0.00063153       0.01384013
H        5.12938402       1.67726639       0.73956798       0.01604227       0.03128701       0.04105534
H        5.77605532       3.79545212      -0.38757096      -0.00145699       0.03208812       0.02134593
C        1.40952623       0.87912038      -3.37652701       0.01415743      -0.00199317      -0.02724806
H        1.29661304       1.79935310      -3.95944002      -0.03349726       0.03457256       0.03473638
H        2.30294136       0.35489257      -3.73507927      -0.01481804       0.01656413      -0.13922273
H        0.53968618       0.25995600      -3.58730233      -0.00196099       0.01043545      -0.00470839
