97
Properties=species:S:1:pos:R:3:forces:R:3 spin=1 charge=0 energy=-90906.18649214924 pbc="F F F"
C       -0.64097454       1.48895441      -1.26327251      -0.01838405      -0.00874987       0.02018343
O       -1.32590884       1.41468527      -2.25637531      -0.03176223      -0.01338250       0.02034473
Ni       0.49735880       0.11869436      -0.83724999       0.00625768       0.00041480      -0.01007449
C       -0.50107447      -1.07319426       0.27579247       0.00425737       0.00809319      -0.00660087
N        0.18756928      -2.04876107       0.89370965       0.00426278       0.01004115      -0.00396328
N       -1.79567261      -1.30647353       0.50285878       0.00391689       0.00818331      -0.00707000
C       -0.64429392      -2.99288223       1.64070803       0.00429260       0.01044575      -0.00408999
C        1.61420438      -2.09939733       0.91558171       0.00422283       0.00680973      -0.00284297
C       -2.05123753      -2.56094696       1.22107637       0.00436010       0.01041428      -0.00359110
C       -2.88079163      -0.51175306       0.02063103       0.00149903       0.00542954      -0.00631033
H       -0.41178918      -4.02010290       1.35569246       0.00472132       0.01080720      -0.00475672
H       -0.47297146      -2.88950411       2.71565964       0.00505719       0.01062380      -0.00433971
C        2.27843706      -2.78170058      -0.10891795       0.00358919       0.00527525      -0.00220664
C        2.29817875      -1.47112462       1.96250996       0.00405043       0.00186959       0.00027253
H       -2.52624592      -3.28165563       0.55078174       0.00277371       0.00947837      -0.00130472
H       -2.71846117      -2.39104961       2.06639346       0.00556899       0.01394973      -0.00342881
C       -3.46731618       0.40216811       0.90048639       0.00141290       0.00545059      -0.00610773
C       -3.33132287      -0.69318428      -1.28965396      -0.00190278       0.00148216      -0.00471021
C        3.66928834      -2.77953791      -0.09354891       0.00360469       0.00048924       0.00070324
C        1.52739742      -3.53119135      -1.19222554       0.00290146       0.00668463      -0.00287026
C        3.68699094      -1.51020430       1.94638541       0.00391234      -0.00417224       0.00386126
C        1.56649630      -0.77171491       3.09141880       0.00357088       0.00279777      -0.00054732
C       -4.50930780       1.18602130       0.41913332      -0.00043191       0.00338599      -0.00555749
C       -3.01788473       0.53694558       2.34412040       0.00063048       0.00410549      -0.00546437
C       -4.37429609       0.11303358      -1.72732429      -0.00368155      -0.00055755      -0.00403626
C       -2.74647166      -1.75841706      -2.19826621      -0.00284437      -0.00061997      -0.00308831
C        4.36709690      -2.14578171       0.91987399       0.00368093      -0.00434058       0.00374096
H        4.21246605      -3.27855762      -0.88637010       0.00351399       0.00014247       0.00086166
C        1.78969425      -5.03613241      -1.08107615       0.00138910       0.00634794      -0.00313645
C        1.87269943      -3.00901806      -2.58678868       0.00326210       0.00562391      -0.00320459
H        0.45915477      -3.36652260      -1.03515971       0.00300185       0.00764125      -0.00272153
H        4.24495904      -1.01956574       2.73456631       0.00412059      -0.00812657       0.00625598
C        1.98855165       0.69165242       3.21783452       0.00526045       0.00226395       0.00059133
C        1.77451790      -1.51897028       4.41134073       0.00006202       0.00254838      -0.00011473
H        0.49922012      -0.77899622       2.85991763       0.00389971       0.00449271      -0.00218145
C       -4.95171370       1.04951610      -0.88575905      -0.00248185       0.00091394      -0.00465599
H       -4.97515668       1.91494314       1.07127079      -0.00073975       0.00333376      -0.00566241
C       -4.13436567       0.12034235       3.30607086       0.00083088      -0.00147985      -0.00742601
C       -2.53327737       1.95127374       2.65831940      -0.00405244       0.00416598       0.00160864
H       -2.17126775      -0.13637516       2.49850294       0.00241619       0.00609683      -0.00659825
H       -4.73189949       0.01689645      -2.74438716      -0.00569923      -0.00252914      -0.00317306
C       -2.42405021      -1.24141638      -3.60008963      -0.00653086      -0.00705255      -0.00639087
C       -3.70008074      -2.95548253      -2.28270354      -0.00200636      -0.00185479       0.00358346
H       -1.80768020      -2.09859701      -1.75480287      -0.00145991       0.00179918      -0.00426079
H        5.44943319      -2.14315629       0.90828265       0.00371572      -0.00796138       0.00581836
H        1.52924774      -5.41538950      -0.09072480       0.00026340       0.00575532      -0.00364076
H        2.84344624      -5.26282668      -1.25502022       0.00136655       0.00572077      -0.00249130
H        1.20326169      -5.58176113      -1.82242331       0.00171788       0.00738728      -0.00416444
H        1.68095076      -1.93726617      -2.66356682       0.00848981       0.00646089      -0.00265819
H        1.27822955      -3.52688963      -3.34198112       0.00013096       0.00756828      -0.00216347
H        2.92629280      -3.17678491      -2.81954607       0.00232885       0.00111481      -0.00436306
H        1.84319426       1.22181449       2.27725095       0.00950653       0.00262525       0.00010687
H        3.04122152       0.77933471       3.49378898       0.00444202       0.00070199       0.00430698
H        1.39787387       1.19069195       3.98842475       0.00317390       0.00294188      -0.00137634
H        1.46524165      -2.56333971       4.33490978      -0.00259386       0.00333005      -0.00005962
H        1.20328068      -1.04815566       5.21334999       0.00028051       0.00434160      -0.00097799
H        2.82793653      -1.50832291       4.69870796      -0.00031063      -0.00010284       0.00130161
H       -5.75628357       1.67615412      -1.24940394      -0.00347635      -0.00019060      -0.00436392
H       -4.48492065      -0.89443527       3.10704550       0.00330259      -0.00185333      -0.00976372
H       -4.99291029       0.78873031       3.21515549      -0.00059633      -0.00317737      -0.00658198
H       -3.78429705       0.16756952       4.33924774       0.00014434      -0.00262851      -0.00713775
H       -1.72524691       2.24652659       1.99147632      -0.00193488       0.00895679       0.00660961
H       -2.17062956       2.00805496       3.68710728      -0.00822475       0.00017856       0.00331443
H       -3.34062450       2.67801143       2.54823831      -0.00530021       0.00278936       0.00183059
H       -1.80229461      -0.35073658      -3.54849207      -0.00379271      -0.00858399      -0.01283093
H       -3.33465469      -0.99390317      -4.15003949      -0.00763603      -0.00752641      -0.00471551
H       -1.90144417      -2.01484591      -4.16695177      -0.01049336      -0.01126726      -0.00440848
H       -3.93700851      -3.36427102      -1.29846012       0.00114987       0.00118579       0.00557918
H       -3.26320184      -3.75003768      -2.89097475      -0.00289996      -0.00343606       0.00500399
H       -4.64158062      -2.65470822      -2.74778465      -0.00363270      -0.00432979       0.00526648
N        1.72935027       0.82829143      -1.98938734       0.03291221      -0.04693299      -0.01173712
C       -0.92057470       4.97645335       1.18942112       0.01188539       0.01080047      -0.00182906
C       -1.87516570       4.71722204       0.21261011      -0.00531568       0.00639032       0.01544320
H        0.93229368       4.35485213       2.07719211       0.01851054       0.00466896      -0.01954083
C        0.17977233       4.14059456       1.32862483       0.00564208       0.00242335      -0.00585567
C       -1.74500072       3.60419160      -0.59966530      -0.02628006      -0.00455430       0.02584006
C       -0.66865325       2.73888887      -0.43032527      -0.02772992      -0.00846622       0.01771359
C        0.30596657       3.02111311       0.51766459      -0.01462573      -0.00709737       0.00324070
H       -2.46894819       3.37161662      -1.37012689      -0.04128914      -0.00510106       0.03945370
H        1.16483558       2.36782620       0.61034109      -0.01973903      -0.01496680      -0.00391914
H       -1.03616602       5.83296748       1.84158698       0.03076449       0.02244377      -0.01314688
H       -2.72296959       5.37947760       0.08989434       0.00045962       0.01489513       0.01953107
C        2.72731030       1.69506874      -1.55688720       0.02797003      -0.04082242      -0.00822365
C        3.05411394       2.90853282      -2.18249480       0.02462409      -0.04357785      -0.01497954
C        3.48104540       1.32867339      -0.43112179       0.02101293      -0.02310769       0.00404138
C        4.12211215       3.67367236      -1.73293736       0.00019660      -0.01877115       0.00055819
H        2.46703511       3.26898598      -3.01616812       0.03785214      -0.06234841      -0.03216003
C        4.54699409       2.09156050       0.00667286      -0.00151774       0.00155319       0.01834924
H        3.23718593       0.39074160       0.05557224       0.03377723      -0.02408249       0.00845636
C        4.89150185       3.26689148      -0.65281628      -0.01378705       0.00636249       0.01998596
H        4.35798249       4.60198029      -2.24043269      -0.01069738      -0.01740025      -0.00191231
H        5.13574423       1.74739320       0.84929657      -0.00989419       0.02125828       0.03305822
H        5.74914212       3.84639423      -0.33731983      -0.03434236       0.02899775       0.03537667
C        1.42160202       0.86778042      -3.40880977      -0.00414401       0.00268148      -0.00447276
H        1.15669355       1.85712380      -3.79772248      -0.05828683       0.01276350       0.05104885
H        2.28055155       0.49841081      -3.98228591      -0.00609502       0.06466203      -0.05194863
H        0.57163846       0.21775360      -3.61148627       0.01469225      -0.02140926      -0.00933162
