97
Properties=species:S:1:pos:R:3:forces:R:3 spin=1 charge=0 energy=-90906.25432414234 pbc="F F F"
C       -0.67317197       1.48079575      -1.23537373      -0.00731412      -0.00622519       0.01047815
O       -1.37388465       1.40691974      -2.21748943      -0.01411805      -0.00861859       0.01217986
Ni       0.48964109       0.11562389      -0.84484979       0.00362588      -0.00165945      -0.00413990
C       -0.50531354      -1.06758243       0.27372640       0.00254342       0.00432442      -0.00341611
N        0.18947241      -2.03336157       0.89924415       0.00265388       0.00587110      -0.00141611
N       -1.79877257      -1.30916114       0.49678118       0.00228757       0.00487145      -0.00414969
C       -0.63749674      -2.98503408       1.64155801       0.00235706       0.00654637      -0.00119808
C        1.61654786      -2.07740315       0.92482890       0.00285712       0.00437245      -0.00129490
C       -2.04709517      -2.55998642       1.22350541       0.00236522       0.00676304      -0.00113018
C       -2.89040830      -0.52459695       0.01167577       0.00118933       0.00368226      -0.00431480
H       -0.39828492      -4.00918179       1.35118833       0.00221824       0.00657429      -0.00123465
H       -0.46678435      -2.88554203       2.71671119       0.00265962       0.00694288      -0.00135503
C        2.28780106      -2.74853039      -0.10265127       0.00268581       0.00436637      -0.00153292
C        2.29371562      -1.45795637       1.98166566       0.00313475       0.00089874       0.00069960
H       -2.52239020      -3.28586254       0.55928240       0.00114720       0.00587322       0.00083045
H       -2.71173535      -2.38626127       2.06996487       0.00331777       0.00965105      -0.00104714
C       -3.48288179       0.38941548       0.88762796       0.00161864       0.00470909      -0.00491961
C       -3.34150615      -0.71636051      -1.29691001      -0.00112144       0.00085593      -0.00321685
C        3.67867593      -2.74540142      -0.07821688       0.00270718       0.00045774       0.00073334
C        1.54453730      -3.49230937      -1.19540540       0.00269503       0.00606498      -0.00278693
C        3.68251315      -1.49795178       1.97526859       0.00299695      -0.00405704       0.00348086
C        1.55423014      -0.76600610       3.11007721       0.00335567       0.00245941      -0.00011129
C       -4.53198293       1.16220434       0.40358684       0.00023142       0.00306280      -0.00470702
C       -3.03690092       0.53014227       2.33194361       0.00070400       0.00411976      -0.00442790
C       -4.39258966       0.07794589      -1.73684902      -0.00260178      -0.00090014      -0.00287691
C       -2.74545166      -1.77748859      -2.20292764      -0.00224441      -0.00069982      -0.00218946
C        4.36954730      -2.12319388       0.94692703       0.00289913      -0.00435058       0.00354795
H        4.22729507      -3.23551189      -0.87280314       0.00259612       0.00030951       0.00072451
C        1.79154010      -4.99933957      -1.07616536       0.00099958       0.00577460      -0.00273335
C        1.91326563      -2.97899028      -2.58724332       0.00425029       0.00476232      -0.00290995
H        0.47585005      -3.31719314      -1.05317989       0.00278320       0.00742903      -0.00353052
H        4.23523068      -1.01515408       2.77196097       0.00318055      -0.00778694       0.00568832
C        1.98488111       0.69293647       3.25894223       0.00597699       0.00168988       0.00066489
C        1.74230947      -1.52884391       4.42407832       0.00000707       0.00233179       0.00026754
H        0.48971987      -0.76317560       2.86593022       0.00367640       0.00469771      -0.00156828
C       -4.97601723       1.01446131      -0.89956083      -0.00185474       0.00037944      -0.00370732
H       -5.00330797       1.89032815       1.05265999       0.00012322       0.00333713      -0.00504128
C       -4.14561616       0.08377200       3.28989404       0.00076925      -0.00171533      -0.00687999
C       -2.58603431       1.95316476       2.65722760      -0.00446726       0.00438912       0.00176369
H       -2.17522032      -0.12434158       2.48416304       0.00265967       0.00651741      -0.00523692
H       -4.75119151      -0.02655050      -2.75278326      -0.00442128      -0.00310782      -0.00203016
C       -2.42790188      -1.25941228      -3.60557766      -0.00568255      -0.00538403      -0.00476864
C       -3.68518528      -2.98558129      -2.28489918      -0.00183456      -0.00145138       0.00330648
H       -1.80303547      -2.10617554      -1.75861626      -0.00097472       0.00119427      -0.00349158
H        5.45194341      -2.12036674       0.94258810       0.00293531      -0.00843760       0.00585066
H        1.51347124      -5.37407670      -0.08885897      -0.00024200       0.00563139      -0.00313827
H        2.84599117      -5.23476765      -1.23382979       0.00102510       0.00509778      -0.00179604
H        1.21166588      -5.54183806      -1.82494250       0.00145379       0.00658978      -0.00366614
H        1.74334968      -1.90394751      -2.66702125       0.00904760       0.00544648      -0.00295767
H        1.31602623      -3.48744215      -3.34666946       0.00163553       0.00683893      -0.00230273
H        2.96537242      -3.16797390      -2.81029676       0.00332846       0.00009938      -0.00355609
H        1.86440808       1.23382012       2.32094900       0.01003603       0.00198508       0.00023644
H        3.03185889       0.76961066       3.55872749       0.00522292      -0.00035681       0.00397753
H        1.38165301       1.18910454       4.02162302       0.00455378       0.00288042      -0.00120581
H        1.42705021      -2.57024480       4.33336122      -0.00252506       0.00309820       0.00029757
H        1.16574322      -1.06263554       5.22497468       0.00033787       0.00410950      -0.00051758
H        2.79271369      -1.52852598       4.72251856      -0.00031749      -0.00021550       0.00147853
H       -5.78648645       1.63233858      -1.26514954      -0.00312516      -0.00114494      -0.00345323
H       -4.47498648      -0.93680940       3.08457615       0.00366228      -0.00204288      -0.00983612
H       -5.01769454       0.73471788       3.20074044      -0.00081451      -0.00375399      -0.00651056
H       -3.79825027       0.13260110       4.32390271      -0.00057727      -0.00314662      -0.00636047
H       -1.78240638       2.27228519       1.99638016      -0.00235316       0.00914553       0.00672538
H       -2.22849601       2.00968698       3.68777918      -0.00896436       0.00112449       0.00350822
H       -3.40955902       2.66204306       2.55082629      -0.00588396       0.00269739       0.00136148
H       -1.81645044      -0.36135417      -3.55513362      -0.00342308      -0.00658188      -0.00994080
H       -3.34072184      -1.02391662      -4.15713632      -0.00682998      -0.00567371      -0.00302151
H       -1.89564165      -2.02779440      -4.17037821      -0.00911887      -0.00861495      -0.00371931
H       -3.91620716      -3.39542538      -1.29969340       0.00058106       0.00126211       0.00498076
H       -3.23953277      -3.77612571      -2.89203121      -0.00286036      -0.00296459       0.00450712
H       -4.63071039      -2.69692824      -2.74948775      -0.00305493      -0.00320127       0.00470078
N        1.73702360       0.78939018      -2.00466517       0.01072028      -0.01876214      -0.00748465
C       -0.88326661       4.98012676       1.21252548       0.01103900       0.00463596      -0.00236738
C       -1.85347435       4.73513672       0.24695324      -0.00132421      -0.00144168       0.01137839
H        0.96009299       4.31877932       2.09189785       0.01735220       0.00482724      -0.01523614
C        0.19619300       4.11776900       1.35134410       0.00882833       0.00160908      -0.00548736
C       -1.75738155       3.61349317      -0.55898004      -0.01300250      -0.00790861       0.01850688
C       -0.69589860       2.72763960      -0.39621407      -0.01104362      -0.00718781       0.01112340
C        0.28935753       2.99173060       0.54512834      -0.00252440      -0.00438969       0.00122392
H       -2.49594733       3.39463356      -1.31972173      -0.02351459      -0.01142411       0.02953787
H        1.13195500       2.31668944       0.63269774      -0.00404657      -0.00681811      -0.00291864
H       -0.96933653       5.84757840       1.85491834       0.02278111       0.01249680      -0.01122321
H       -2.68466977       5.41887442       0.12688565      -0.00051306       0.00035624       0.01564857
C        2.74923762       1.63736864      -1.57131319       0.01178377      -0.02084426      -0.00663978
C        3.12118581       2.82129525      -2.22683744       0.01754095      -0.02639588      -0.01328599
C        3.47037464       1.28906727      -0.41678279       0.00430635      -0.01323700       0.00108683
C        4.18000917       3.58988703      -1.76209565       0.00269231      -0.01341824      -0.00112238
H        2.57418237       3.15682825      -3.09664448       0.03142856      -0.04030785      -0.02734626
C        4.52873686       2.05490599       0.03444577      -0.00999684      -0.00021776       0.01271379
H        3.20662713       0.36675044       0.08905122       0.00873655      -0.01458303       0.00107238
C        4.90386966       3.21199423      -0.64155957      -0.01399829       0.00276736       0.01506907
H        4.44149468       4.49975292      -2.28973901       0.00245716      -0.01479965      -0.00368566
H        5.08619974       1.73117411       0.90633596      -0.01877563       0.00997216       0.02238128
H        5.74970953       3.79867703      -0.30778155      -0.02959996       0.01724434       0.02918565
C        1.38696121       0.88990884      -3.41128714      -0.00770282       0.00609107      -0.00114270
H        1.04490350       1.88324670      -3.72443619      -0.05101924       0.00304908       0.03421081
H        2.24711270       0.61641766      -4.03462039      -0.00503311       0.05877272      -0.02093048
H        0.57320673       0.19949577      -3.62946055       0.01606061      -0.01928162      -0.01091253
