97
Properties=species:S:1:pos:R:3:forces:R:3 spin=1 charge=0 energy=-90906.28306025684 pbc="F F F"
C       -0.69201707       1.47495772      -1.21770447      -0.00478852      -0.00551169       0.00877765
O       -1.40425267       1.40323062      -2.19149353      -0.01139004      -0.00714647       0.00896747
Ni       0.47930411       0.11060821      -0.84708497       0.00264805      -0.00195686      -0.00377817
C       -0.51112602      -1.06899709       0.27499984       0.00209919       0.00325148      -0.00285381
N        0.18845064      -2.02626956       0.90777088       0.00213891       0.00467030      -0.00088821
N       -1.80366448      -1.31754258       0.49448431       0.00178867       0.00391610      -0.00320629
C       -0.63461715      -2.98376582       1.64686957       0.00182953       0.00552565      -0.00036661
C        1.61588308      -2.06234244       0.93610388       0.00233290       0.00351239      -0.00090122
C       -2.04639196      -2.56464205       1.22940679       0.00182277       0.00573003      -0.00034297
C       -2.89926006      -0.54025146       0.00598639       0.00107439       0.00306564      -0.00348796
H       -0.39022726      -4.00576688       1.35320788       0.00154482       0.00541516      -0.00011289
H       -0.46504985      -2.88690576       2.72225347       0.00210077       0.00610401      -0.00052725
C        2.29390091      -2.72114278      -0.09510095       0.00223087       0.00381718      -0.00129723
C        2.28694287      -1.44801675       2.00007678       0.00264800       0.00051527       0.00075257
H       -2.52184722      -3.29560626       0.57107345       0.00070854       0.00484799       0.00155354
H       -2.70900581      -2.38722795       2.07663441       0.00270916       0.00837794      -0.00026777
C       -3.49649010       0.37467713       0.87783634       0.00159878       0.00430181      -0.00422270
C       -3.34903371      -0.73929588      -1.30188254      -0.00091664       0.00064166      -0.00256004
C        3.68476111      -2.71367601      -0.06445625       0.00228674       0.00037246       0.00066129
C        1.55836516      -3.45970863      -1.19673363       0.00244062       0.00549855      -0.00262411
C        3.67579400      -1.48478134       2.00004324       0.00256367      -0.00384245       0.00311438
C        1.54075453      -0.76289731       3.12826633       0.00307761       0.00210463       0.00007244
C       -4.55066421       1.13873842       0.39085121       0.00050929       0.00291313      -0.00413665
C       -3.05317546       0.52190742       2.32235133       0.00073784       0.00395526      -0.00380154
C       -4.40599192       0.04563438      -1.74450518      -0.00211456      -0.00091073      -0.00232159
C       -2.74292995      -1.79605620      -2.20610229      -0.00192180      -0.00070384      -0.00170977
C        4.36924183      -2.09969118       0.96975428       0.00245814      -0.00409678       0.00317297
H        4.23839404      -3.19443107      -0.86122108       0.00214072       0.00030784       0.00059447
C        1.79262691      -4.96837465      -1.07162515       0.00077543       0.00523007      -0.00247202
C        1.94792601      -2.95276199      -2.58526753       0.00433918       0.00414279      -0.00263620
H        0.48940107      -3.27610256      -1.06798305       0.00253002       0.00687885      -0.00362166
H        4.22362098      -1.00693816       2.80306649       0.00269988      -0.00727871       0.00509475
C        1.97871773       0.69195982       3.29655213       0.00587053       0.00127646       0.00075954
C        1.71205046      -1.53895625       4.43683453       0.00003723       0.00202256       0.00041703
H        0.47875379      -0.75130872       2.87348918       0.00339652       0.00440575      -0.00113142
C       -4.99518269       0.98181781      -0.91104889      -0.00143508       0.00035465      -0.00316892
H       -5.02643767       1.86659309       1.03693347       0.00053611       0.00333560      -0.00455065
C       -4.15457481       0.05154760       3.27754764       0.00088765      -0.00147927      -0.00615659
C       -2.63082252       1.95232800       2.65382492      -0.00425746       0.00419619       0.00165766
H       -2.17895329      -0.11606684       2.47339318       0.00259580       0.00636491      -0.00442971
H       -4.76426267      -0.06539420      -2.75987509      -0.00374955      -0.00297807      -0.00154099
C       -2.43003244      -1.27511443      -3.60880033      -0.00490127      -0.00460791      -0.00389070
C       -3.67024531      -3.01368369      -2.28688749      -0.00163008      -0.00125890       0.00292269
H       -1.79735489      -2.11470445      -1.76130227      -0.00083574       0.00088021      -0.00290128
H        5.45163778      -2.09424867       0.97058770       0.00248221      -0.00795505       0.00530842
H        1.49871939      -5.33971307      -0.08760860      -0.00051533       0.00521824      -0.00286888
H        2.84766239      -5.21079288      -1.21441421       0.00078007       0.00460845      -0.00141770
H        1.21932348      -5.50804523      -1.82747576       0.00130752       0.00592722      -0.00336686
H        1.79408969      -1.87550383      -2.66736399       0.00874497       0.00470914      -0.00285590
H        1.35049725      -3.45366355      -3.34954542       0.00219767       0.00607374      -0.00226296
H        2.99901019      -3.15763896      -2.79890232       0.00347701      -0.00022863      -0.00290207
H        1.87954730       1.24191819       2.36132117       0.00952541       0.00158198       0.00050150
H        3.02036447       0.75881314       3.61653433       0.00517736      -0.00091249       0.00357842
H        1.36512190       1.18599913       4.05228803       0.00491792       0.00254143      -0.00081363
H        1.39186656      -2.57768850       4.33402598      -0.00235911       0.00274658       0.00046502
H        1.13106002      -1.07665892       5.23681726       0.00046528       0.00371224      -0.00026583
H        2.75981241      -1.54742381       4.74438315      -0.00026526      -0.00039781       0.00138858
H       -5.81020760       1.59243093      -1.27870728      -0.00258240      -0.00106355      -0.00297804
H       -4.46568850      -0.97383322       3.06775121       0.00374681      -0.00176761      -0.00891841
H       -5.03803926       0.68710283       3.18906911      -0.00063001      -0.00355197      -0.00603131
H       -3.80966972       0.10258388       4.31226157      -0.00052280      -0.00274777      -0.00563627
H       -1.83251700       2.29050909       1.99604238      -0.00229740       0.00853300       0.00634216
H       -2.27604049       2.01083532       3.68518946      -0.00862264       0.00142645       0.00331193
H       -3.46807007       2.64536583       2.55030313      -0.00557381       0.00251116       0.00089878
H       -1.82976265      -0.36937176      -3.55793725      -0.00291216      -0.00563145      -0.00829220
H       -3.34491809      -1.05141516      -4.16184485      -0.00593981      -0.00475018      -0.00228669
H       -1.88740031      -2.03699294      -4.17254338      -0.00791163      -0.00734559      -0.00315195
H       -3.89591906      -3.42522259      -1.30114369       0.00035645       0.00109033       0.00436099
H       -3.21708500      -3.80011580      -2.89379919      -0.00258004      -0.00256466       0.00394366
H       -4.61924925      -2.73520573      -2.75059298      -0.00263793      -0.00264506       0.00413010
N        1.72452833       0.78176569      -2.01311970       0.00677046      -0.01337518      -0.00699392
C       -0.85094914       4.97618285       1.23256791       0.00966579       0.00256104      -0.00208680
C       -1.82689787       4.74605428       0.26895166      -0.00094801      -0.00300041       0.00984629
H        0.98082393       4.28324995       2.11217262       0.01585523       0.00413182      -0.01361603
C        0.21261277       4.09462415       1.37281828       0.00852943       0.00095349      -0.00514382
C       -1.75128829       3.62187624      -0.53584673      -0.00999941      -0.00803037       0.01566613
C       -0.70340250       2.71947648      -0.37460922      -0.00776481      -0.00660991       0.00900822
C        0.28560337       2.96681814       0.56712259      -0.00042014      -0.00388523       0.00047676
H       -2.49534169       3.41491758      -1.29460053      -0.01883697      -0.01156420       0.02511763
H        1.11612570       2.27682583       0.65394693      -0.00101421      -0.00501451      -0.00308978
H       -0.91963234       5.84753723       1.87180275       0.01906235       0.00878453      -0.00939287
H       -2.64593574       5.44437644       0.14919173      -0.00107338      -0.00247422       0.01388288
C        2.75068644       1.61016195      -1.57987167       0.00791385      -0.01588893      -0.00612845
C        3.16420136       2.76932999      -2.25462688       0.01452288      -0.02124337      -0.01124596
C        3.44596212       1.26824651      -0.40674617       0.00041238      -0.00995667       0.00059856
C        4.22942346       3.52558367      -1.78395922       0.00296154      -0.01147404      -0.00099192
H        2.64496322       3.09469974      -3.14493935       0.02699429      -0.03277068      -0.02275604
C        4.51032124       2.02173969       0.05000699      -0.01121339       0.00018926       0.01084369
H        3.15582921       0.36128806       0.11244835       0.00237844      -0.01087826       0.00019259
C        4.92095434       3.15883468      -0.63987990      -0.01263873       0.00212868       0.01274401
H        4.52075613       4.41768364      -2.32604748       0.00498934      -0.01341335      -0.00316200
H        5.04373579       1.70489853       0.93943308      -0.01989422       0.00838388       0.01909881
H        5.76876215       3.73806674      -0.29824374      -0.02553731       0.01385955       0.02478678
C        1.35606222       0.91235137      -3.41211418      -0.00691164       0.00606907      -0.00141955
H        0.98655948       1.90712387      -3.68915234      -0.04169757       0.00155209       0.02743092
H        2.21394976       0.67958182      -4.05473764      -0.00506882       0.05028214      -0.01481803
H        0.55623395       0.20896953      -3.64029191       0.01391645      -0.01459504      -0.01164039
