97
Properties=species:S:1:pos:R:3:forces:R:3 spin=1 charge=0 energy=-90906.3009035033 pbc="F F F"
C       -0.70743039       1.47013834      -1.20333174      -0.00382763      -0.00490586       0.00746990
O       -1.42940037       1.40063721      -2.16993425      -0.00997879      -0.00605586       0.00704322
Ni       0.46935611       0.10613319      -0.84836796       0.00200266      -0.00187714      -0.00379312
C       -0.51670951      -1.07152403       0.27652308       0.00184378       0.00275580      -0.00263430
N        0.18692399      -2.02134038       0.91570906       0.00186572       0.00408489      -0.00076592
N       -1.80840664      -1.32617388       0.49302197       0.00154431       0.00347569      -0.00267484
C       -0.63270318      -2.98374325       1.65228630       0.00158926       0.00505432      -0.00000658
C        1.61461082      -2.04994821       0.94651585       0.00204647       0.00303999      -0.00080165
C       -2.04634323      -2.56985617       1.23526489       0.00158197       0.00523514       0.00005179
C       -2.90720522      -0.55508675       0.00143430       0.00096127       0.00276696      -0.00297567
H       -0.38389847      -4.00396488       1.35609027       0.00124594       0.00487634       0.00046411
H       -0.46419140      -2.88894613       2.72785398       0.00189522       0.00581460      -0.00016678
C        2.29871987      -2.69737696      -0.08803211       0.00199058       0.00340724      -0.00119479
C        2.28017565      -1.43950194       2.01639323       0.00238223       0.00032300       0.00068098
H       -2.52191997      -3.30537926       0.58225559       0.00052813       0.00435638       0.00186058
H       -2.70719110      -2.38913245       2.08312386       0.00241323       0.00768961       0.00011611
C       -3.50861586       0.36069911       0.86957722       0.00152678       0.00400610      -0.00371865
C       -3.35540734      -0.76019854      -1.30594013      -0.00079521       0.00055547      -0.00212859
C        3.68952033      -2.68513739      -0.05233032       0.00201219       0.00025487       0.00055579
C        1.57021223      -3.43137046      -1.19749925       0.00225501       0.00498624      -0.00247763
C        3.66907641      -1.47232615       2.02143159       0.00228663      -0.00363339       0.00275683
C        1.52808665      -0.76058651       3.14445758       0.00287837       0.00182212       0.00013201
C       -4.56693993       1.11728453       0.37986729       0.00059819       0.00280600      -0.00368437
C       -3.06756390       0.51390733       2.31416754       0.00074251       0.00379104      -0.00334217
C       -4.41721525       0.01670149      -1.75107551      -0.00184401      -0.00082803      -0.00194091
C       -2.74041423      -1.81293044      -2.20863591      -0.00170497      -0.00064494      -0.00138984
C        4.36826017      -2.07776717       0.98941645       0.00217971      -0.00385179       0.00283355
H        4.24764712      -3.15722524      -0.85107994       0.00188696       0.00020674       0.00049241
C        1.79335736      -4.94138088      -1.06766020       0.00061617       0.00475905      -0.00227700
C        1.97800706      -2.92973697      -2.58276508       0.00427061       0.00363283      -0.00244225
H        0.50116375      -3.24048330      -1.08066302       0.00235757       0.00634903      -0.00357584
H        4.21249800      -0.99829700       2.82967866       0.00241483      -0.00681618       0.00456252
C        1.97211149       0.69055351       3.32976013       0.00559905       0.00099487       0.00077739
C        1.68499121      -1.54803137       4.44805737       0.00012452       0.00173735       0.00040672
H        0.46836481      -0.74143612       2.88061588       0.00316616       0.00405087      -0.00088066
C       -5.01155905       0.95250053      -0.92101410      -0.00117534       0.00038565      -0.00278106
H       -5.04652999       1.84501094       1.02322013       0.00070245       0.00327751      -0.00413383
C       -4.16218301       0.02340069       3.26726421       0.00097087      -0.00116408      -0.00550137
C       -2.66979747       1.95040530       2.65011752      -0.00393454       0.00395733       0.00151363
H       -2.18277751      -0.10959724       2.46436886       0.00243342       0.00609719      -0.00386342
H       -4.77487038      -0.09985833      -2.76604607      -0.00333087      -0.00276963      -0.00122505
C       -2.43171187      -1.28916224      -3.61125445      -0.00424974      -0.00403814      -0.00326585
C       -3.65664142      -3.03887994      -2.28856418      -0.00149302      -0.00108670       0.00260220
H       -1.79212810      -2.12271090      -1.76344531      -0.00078623       0.00069517      -0.00242404
H        5.45062364      -2.06922298       0.99443929       0.00223397      -0.00745371       0.00477547
H        1.48550159      -5.30982942      -0.08681270      -0.00066055       0.00480986      -0.00266278
H        2.84873753      -5.18980433      -1.19727654       0.00063393       0.00415506      -0.00118086
H        1.22604638      -5.47854127      -1.82979621       0.00119920       0.00536982      -0.00312481
H        1.83731534      -1.85082282      -2.66669743       0.00826701       0.00407446      -0.00276600
H        1.38114122      -3.42428203      -3.35160188       0.00248551       0.00534406      -0.00220347
H        3.02815313      -3.14768205      -2.78787477       0.00345853      -0.00040619      -0.00245789
H        1.89142779       1.24830249       2.39732930       0.00881014       0.00132980       0.00066067
H        3.00877872       0.74871390       3.66710677       0.00498067      -0.00116693       0.00314023
H        1.34967254       1.18285155       4.07934893       0.00497903       0.00219056      -0.00049558
H        1.36076838      -2.58438076       4.33480208      -0.00210098       0.00245097       0.00049251
H        1.10014455      -1.08918078       5.24723439       0.00061154       0.00334182      -0.00015156
H        2.73037723      -1.56402974       4.76336061      -0.00014107      -0.00050359       0.00121891
H       -5.83032916       1.55689784      -1.29060101      -0.00220785      -0.00089549      -0.00262164
H       -4.45757279      -1.00588917       3.05396132       0.00367315      -0.00141636      -0.00794710
H       -5.05523320       0.64551593       3.17921317      -0.00044631      -0.00315851      -0.00551320
H       -3.81931811       0.07657602       4.30253841      -0.00037008      -0.00221970      -0.00501835
H       -1.87672544       2.30462849       1.99443237      -0.00210558       0.00786391       0.00592588
H       -2.31696232       2.01119931       3.68199226      -0.00809131       0.00153476       0.00309249
H       -3.51870779       2.62945957       2.54900545      -0.00509779       0.00237958       0.00055825
H       -1.84182532      -0.37648925      -3.55976121      -0.00244366      -0.00495508      -0.00709609
H       -3.34833234      -1.07612362      -4.16562996      -0.00513724      -0.00410020      -0.00184625
H       -1.87959602      -2.04479176      -4.17418545      -0.00689134      -0.00648029      -0.00267865
H       -3.87749661      -3.45207716      -1.30241733       0.00018988       0.00095648       0.00381503
H       -3.19691247      -3.82148238      -2.89548408      -0.00231158      -0.00221757       0.00345487
H       -4.60866108      -2.76932564      -2.75136061      -0.00232088      -0.00223717       0.00362059
N        1.71052327       0.78013403      -2.01894110       0.00508340      -0.01090436      -0.00664695
C       -0.82273787       4.97124450       1.25008267       0.00839418       0.00147864      -0.00177405
C       -1.80195273       4.75499880       0.28645816      -0.00110255      -0.00351688       0.00886608
H        0.99761448       4.25074954       2.13153347       0.01430753       0.00335020      -0.01232723
C        0.22680136       4.07337227       1.39208295       0.00773780       0.00041779      -0.00475757
C       -1.74287400       3.62961048      -0.51814641      -0.00877491      -0.00766403       0.01383570
C       -0.70760460       2.71265929      -0.35715572      -0.00653435      -0.00610893       0.00767407
C        0.28341046       2.94485118       0.58620083       0.00007318      -0.00364476       0.00010627
H       -2.49015081       3.43344748      -1.27660541      -0.01662377      -0.01092130       0.02219828
H        1.10330743       2.24226160       0.67320500      -0.00018094      -0.00426325      -0.00315099
H       -0.87754709       5.84483123       1.88761873       0.01649150       0.00665050      -0.00806283
H       -2.61025795       5.46563660       0.16635433      -0.00156275      -0.00344115       0.01269056
C        2.74908763       1.59079700      -1.58597623       0.00614239      -0.01339338      -0.00564923
C        3.19802537       2.72823136      -2.27524964       0.01247172      -0.01826565      -0.00955256
C        3.42313665       1.25326767      -0.39861304      -0.00099620      -0.00831225       0.00027527
C        4.27195207       3.47035691      -1.80159050       0.00282957      -0.01009702      -0.00056645
H        2.70037979       3.04717600      -3.18003557       0.02356082      -0.02811367      -0.01913869
C        4.49536745       1.99297772       0.06121921      -0.01110680       0.00047699       0.00955801
H        3.10859641       0.36094491       0.13181094      -0.00004456      -0.00900609      -0.00025615
C        4.93814177       3.11090225      -0.64049878      -0.01145847       0.00190358       0.01129653
H        4.58988329       4.34610598      -2.35524830       0.00547314      -0.01215083      -0.00231615
H        5.00891310       1.68076253       0.96395545      -0.01942439       0.00772947       0.01690288
H        5.79051832       3.68064068      -0.29438361      -0.02259951       0.01214938       0.02185079
C        1.33009952       0.93240879      -3.41217004      -0.00585219       0.00537499      -0.00173261
H        0.95066905       1.93018774      -3.66532235      -0.03430535       0.00103532       0.02265540
H        2.18385990       0.72004297      -4.06719042      -0.00464383       0.04253633      -0.01195155
H        0.53412318       0.22681626      -3.64673759       0.01165652      -0.01146363      -0.01127107
