97
Properties=species:S:1:pos:R:3:forces:R:3 spin=1 charge=0 energy=-90906.31399363697 pbc="F F F"
C       -0.72185234       1.46591144      -1.19002856      -0.00267949      -0.00428322       0.00689607
O       -1.45273998       1.39875637      -2.14991643      -0.00921980      -0.00508811       0.00479754
Ni       0.45952022       0.10221226      -0.84930752       0.00146501      -0.00169542      -0.00376246
C       -0.52219945      -1.07422324       0.27802512       0.00165653       0.00244690      -0.00248426
N        0.18524257      -2.01702453       0.92315266       0.00165508       0.00363464      -0.00074077
N       -1.81305329      -1.33471291       0.49180939       0.00131745       0.00316831      -0.00223803
C       -0.63105441      -2.98401932       1.65747056       0.00141928       0.00469871       0.00022727
C        1.61312850      -2.03839616       0.95642634       0.00181910       0.00266527      -0.00077654
C       -2.04644466      -2.57514275       1.24091321       0.00139863       0.00484329       0.00030145
C       -2.91484440      -0.56954234      -0.00273220       0.00090152       0.00253736      -0.00253481
H       -0.37809359      -4.00256957       1.35899848       0.00103560       0.00446446       0.00087932
H       -0.46351887      -2.89107264       2.73319122       0.00175760       0.00563003       0.00005340
C        2.30309342      -2.67489343      -0.08117278       0.00178159       0.00300983      -0.00113002
C        2.27339166      -1.43140515       2.03175816       0.00214855       0.00019419       0.00055893
H       -2.52210373      -3.31496380       0.59296581       0.00042891       0.00400195       0.00201092
H       -2.70560658      -2.39133601       2.08936948       0.00217998       0.00709816       0.00036538
C       -3.52032178       0.34698849       0.86186408       0.00141255       0.00374531      -0.00324738
C       -3.36139320      -0.78033818      -1.30966905      -0.00068726       0.00051778      -0.00177113
C        3.69379026      -2.65778690      -0.04075151       0.00180983       0.00010249       0.00045938
C        1.58138040      -3.40454756      -1.19804861       0.00209020       0.00448944      -0.00235430
C        3.66232804      -1.46008687       2.04147471       0.00205698      -0.00341987       0.00240851
C        1.51569886      -0.75848137       3.15971514       0.00268240       0.00157902       0.00010759
C       -4.58246204       1.09649718       0.36950993       0.00060043       0.00268013      -0.00328361
C       -3.08142828       0.50593709       2.30649119       0.00070793       0.00361479      -0.00293549
C       -4.42769863      -0.01104980      -1.75724643      -0.00164406      -0.00071427      -0.00164005
C       -2.73796109      -1.82917048      -2.21090728      -0.00149847      -0.00056874      -0.00110608
C        4.36700911      -2.05642813       1.00792422       0.00199692      -0.00365016       0.00248858
H        4.25622984      -3.12147673      -0.84132940       0.00169027       0.00002882       0.00042031
C        1.79390438      -4.91576837      -1.06396272       0.00048600       0.00426396      -0.00211257
C        2.00642220      -2.90791439      -2.57996680       0.00413459       0.00313536      -0.00226862
H        0.51240999      -3.20677590      -1.09256371       0.00220778       0.00581859      -0.00348854
H        4.20149740      -0.98946831       2.85453426       0.00219198      -0.00634257       0.00404714
C        1.96515523       0.68902881       3.36109544       0.00524997       0.00078377       0.00071738
C        1.65920944      -1.55653356       4.45844720       0.00025239       0.00152724       0.00036903
H        0.45820198      -0.73226601       2.88748924       0.00295600       0.00366983      -0.00070467
C       -5.02699364       0.92432231      -0.93043271      -0.00098634       0.00042387      -0.00242043
H       -5.06566523       1.82412782       1.01021163       0.00075242       0.00316701      -0.00371774
C       -4.16935017      -0.00312039       3.25774938       0.00098089      -0.00079081      -0.00486420
C       -2.70672046       1.94779642       2.64630017      -0.00355126       0.00372215       0.00137341
H       -2.18697515      -0.10385509       2.45598497       0.00223729       0.00575698      -0.00336166
H       -4.78464169      -0.13281744      -2.77185834      -0.00296818      -0.00253547      -0.00095033
C       -2.43327840      -1.30267715      -3.61341970      -0.00364358      -0.00354303      -0.00273043
C       -3.64356152      -3.06294438      -2.29007299      -0.00136642      -0.00088708       0.00227590
H       -1.78717752      -2.13050722      -1.76534668      -0.00075040       0.00055704      -0.00198268
H        5.44931599      -2.04462490       1.01681748       0.00201385      -0.00699331       0.00427327
H        1.47285273      -5.28145457      -0.08630552      -0.00076418       0.00439100      -0.00249518
H        2.84942939      -5.16987940      -1.18107631       0.00049047       0.00369274      -0.00101165
H        1.23236053      -5.45053370      -1.83203180       0.00108636       0.00484064      -0.00290207
H        1.87773942      -1.82761623      -2.66548544       0.00773457       0.00347781      -0.00267596
H        1.41045272      -3.39654361      -3.35326064       0.00268457       0.00463088      -0.00212826
H        3.05556738      -3.13785806      -2.77687896       0.00340414      -0.00054654      -0.00208719
H        1.90183237       1.25399198       2.43161902       0.00797965       0.00113168       0.00071371
H        2.99684857       0.73890656       3.71460490       0.00472672      -0.00126776       0.00262357
H        1.33452157       1.17977868       4.10480012       0.00491307       0.00186001      -0.00026144
H        1.33142453      -2.59059924       4.33539892      -0.00177847       0.00216832       0.00046703
H        1.07067820      -1.10098456       5.25682971       0.00077734       0.00299448      -0.00011168
H        2.70228178      -1.57950515       4.78095688       0.00002459      -0.00052584       0.00100585
H       -5.84919573       1.52286757      -1.30190091      -0.00191509      -0.00074769      -0.00229294
H       -4.45007633      -1.03583911       3.04131582       0.00348913      -0.00102747      -0.00697032
H       -5.07115008       0.60633236       3.17007802      -0.00026580      -0.00268387      -0.00496650
H       -3.82831661       0.05210510       4.29351130      -0.00022548      -0.00165152      -0.00442703
H       -1.91894010       2.31685009       1.99237883      -0.00184422       0.00716493       0.00547258
H       -2.35555935       2.01094012       3.67858073      -0.00746992       0.00158008       0.00284278
H       -3.56637082       2.61352641       2.54740613      -0.00454936       0.00228676       0.00026500
H       -1.85344633      -0.38346048      -3.56127378      -0.00198156      -0.00434697      -0.00605194
H       -3.35143675      -1.09982071      -4.16906250      -0.00436658      -0.00352011      -0.00149612
H       -1.87211866      -2.05215623      -4.17560919      -0.00594293      -0.00571003      -0.00222254
H       -3.85977721      -3.47774943      -1.30356759       0.00003048       0.00085610       0.00332932
H       -3.17762398      -3.84180214      -2.89707465      -0.00207232      -0.00187669       0.00302045
H       -4.59838847      -2.80188501      -2.75195414      -0.00203927      -0.00185215       0.00314274
N        1.69647426       0.78036894      -2.02345371       0.00395521      -0.00912215      -0.00623450
C       -0.79607074       4.96609403       1.26666950       0.00718441       0.00062256      -0.00147294
C       -1.77775237       4.76330281       0.30254519      -0.00135345      -0.00372533       0.00804760
H        1.01271890       4.21946742       2.15043365       0.01273273       0.00259630      -0.01109757
C        0.23988287       4.05292413       1.41055144       0.00681503       0.00005090      -0.00430396
C       -1.73403060       3.63715169      -0.50206447      -0.00789103      -0.00722003       0.01225668
C       -0.71113286       2.70642360      -0.34094612      -0.00577524      -0.00555363       0.00653315
C        0.28123632       2.92405319       0.60437039       0.00021509      -0.00349072      -0.00019877
H       -2.48381597       3.45139918      -1.26066888      -0.01494086      -0.01009878       0.01966265
H        1.09083430       2.20966219       0.69189088       0.00016842      -0.00372794      -0.00315063
H       -0.83800169       5.84139084       1.90283856       0.01420580       0.00500299      -0.00686619
H       -2.57568060       5.48545504       0.18189652      -0.00201338      -0.00394188       0.01163674
C        2.74690953       1.57388902      -1.59099544       0.00485440      -0.01146674      -0.00516130
C        3.22829871       2.69042499      -2.29279630       0.01070623      -0.01573080      -0.00798789
C        3.40197412       1.24035020      -0.39140481      -0.00171990      -0.00710422       0.00002935
C        4.31147343       3.41794376      -1.81732114       0.00249746      -0.00880070      -0.00004760
H        2.74958501       3.00399890      -3.20953631       0.02045694      -0.02415020      -0.01598053
C        4.48245403       1.96603909       0.07055221      -0.01059785       0.00063844       0.00844601
H        3.06437316       0.36264833       0.14932098      -0.00135393      -0.00770197      -0.00066170
C        4.95535029       3.06486928      -0.64193661      -0.01035355       0.00180163       0.01016248
H        4.65415414       4.27762543      -2.38128395       0.00532082      -0.01077179      -0.00133432
H        4.97797925       1.65811032       0.98481852      -0.01838475       0.00708025       0.01491380
H        5.81296170       3.62464841      -0.29260147      -0.02004867       0.01081548       0.01943719
C        1.30661663       0.95117719      -3.41161541      -0.00483625       0.00448457      -0.00194999
H        0.92529658       1.95315738      -3.64586494      -0.02806012       0.00064576       0.01849520
H        2.15521550       0.74992170      -4.07674123      -0.00398497       0.03533905      -0.00996268
H        0.50945099       0.24849184      -3.65052055       0.00959552      -0.00925512      -0.01041617
