97
Properties=species:S:1:pos:R:3:forces:R:3 spin=1 charge=0 energy=-90906.33150309742 pbc="F F F"
C       -0.74962410       1.45896844      -1.16442216      -0.00141273      -0.00310849       0.00487909
O       -1.49691923       1.39704130      -2.11168355      -0.00695543      -0.00325671       0.00181876
Ni       0.43970702       0.09585559      -0.85056914       0.00070927      -0.00126719      -0.00352572
C       -0.53316285      -1.07951915       0.28090864       0.00130572       0.00194435      -0.00213782
N        0.18164530      -2.00895225       0.93695757       0.00129888       0.00280326      -0.00080102
N       -1.82224480      -1.35155223       0.48968493       0.00100155       0.00272141      -0.00145615
C       -0.62796860      -2.98483432       1.66707084       0.00110602       0.00407418       0.00051549
C        1.60980753      -2.01610513       0.97543979       0.00143354       0.00195989      -0.00081177
C       -2.04671285      -2.58580287       1.25162510       0.00108385       0.00409564       0.00059621
C       -2.92986859      -0.59813166      -0.01063082       0.00075935       0.00221195      -0.00174052
H       -0.36694330      -4.00010321       1.36433289       0.00067479       0.00367679       0.00148652
H       -0.46222553      -2.89533494       2.74303448       0.00149586       0.00527708       0.00032493
C        2.31131850      -2.63133094      -0.06755312       0.00143949       0.00216678      -0.00103389
C        2.25953996      -1.41554587       2.06114574       0.00174017      -0.00003749       0.00021810
H       -2.52239904      -3.33377292       0.61336987       0.00033045       0.00341859       0.00199079
H       -2.70257354      -2.39634558       2.10127344       0.00171944       0.00590732       0.00062650
C       -3.54368293       0.31950807       0.84704167       0.00111586       0.00321971      -0.00236240
C       -3.37288290      -0.81995036      -1.31674450      -0.00046632       0.00055894      -0.00115957
C        3.70167396      -2.60442542      -0.01784931       0.00143792      -0.00030870       0.00029134
C        1.60308800      -3.35248781      -1.19873648       0.00175265       0.00343215      -0.00210866
C        3.64849499      -1.43572367       2.07997357       0.00166449      -0.00300496       0.00170312
C        1.49095214      -0.75442968       3.18884091       0.00230099       0.00113546      -0.00002440
C       -4.61305635       1.05513370       0.34943047       0.00051374       0.00234421      -0.00244116
C       -3.10914222       0.48966135       2.29169734       0.00060496       0.00322551      -0.00213377
C       -4.44780061      -0.06561704      -1.76917432      -0.00119716      -0.00045569      -0.00107419
C       -2.73309042      -1.86108843      -2.21504966      -0.00107864      -0.00033510      -0.00058676
C        4.36398585      -2.01436656       1.04388895       0.00161260      -0.00332349       0.00184791
H        4.27260113      -3.05158355      -0.82167651       0.00135659      -0.00050263       0.00031779
C        1.79454355      -4.86589841      -1.05695099       0.00022289       0.00326052      -0.00183110
C        2.06159360      -2.86570540      -2.57350854       0.00381123       0.00213000      -0.00194037
H        0.53474810      -3.14119110      -1.11546152       0.00191768       0.00469805      -0.00326285
H        4.17921293      -0.97146143       2.90216855       0.00177048      -0.00538978       0.00298946
C        1.95005338       0.68578665       3.42109857       0.00437303       0.00048020       0.00036195
C        1.60916916      -1.57247454       4.47776936       0.00063218       0.00120915       0.00018199
H        0.43793189      -0.71482855       2.90092023       0.00248202       0.00279917      -0.00046930
C       -5.05695226       0.86871139      -0.94874318      -0.00071545       0.00046993      -0.00174992
H       -5.10338429       1.78253604       0.98484547       0.00062242       0.00276793      -0.00284989
C       -4.18340316      -0.05415075       3.23966125       0.00090575       0.00000924      -0.00355333
C       -2.77866070       1.94082877       2.63831219      -0.00264579       0.00320956       0.00104912
H       -2.19682623      -0.09350025       2.44001275       0.00171016       0.00492000      -0.00239934
H       -4.80312757      -0.19754023      -2.78308606      -0.00224851      -0.00198366      -0.00051215
C       -2.43627018      -1.32939312      -3.61734260      -0.00236780      -0.00256577      -0.00174265
C       -3.61783164      -3.10981805      -2.29276511      -0.00111401      -0.00045514       0.00172354
H       -1.77768981      -2.14596539      -1.76873239      -0.00063929       0.00034825      -0.00113974
H        5.44610962      -1.99589348       1.06031470       0.00163565      -0.00616799       0.00332483
H        1.44794309      -5.22603728      -0.08596865      -0.00096993       0.00345498      -0.00220922
H        2.84980201      -5.13118645      -1.14977578       0.00017197       0.00265270      -0.00079723
H        1.24435398      -5.39595379      -1.83641465       0.00075547       0.00373423      -0.00253854
H        1.95540253      -1.78316479      -2.66174937       0.00660513       0.00232765      -0.00245674
H        1.46811006      -3.34301930      -3.35571621       0.00293882       0.00321225      -0.00197275
H        3.10840850      -3.11830058      -2.75424641       0.00320884      -0.00080353      -0.00143167
H        1.91971854       1.26421592       2.49813201       0.00597348       0.00082197       0.00047944
H        2.97151139       0.71958060       3.80490482       0.00409442      -0.00115094       0.00126694
H        1.30414688       1.17379302       4.15335948       0.00452606       0.00125160      -0.00000341
H        1.27525389      -2.60207883       4.33605242      -0.00091923       0.00168728       0.00040893
H        1.01334699      -1.12342003       5.27446712       0.00114633       0.00239909      -0.00010112
H        2.64758286      -1.60845645       4.81392662       0.00047000      -0.00030724       0.00050827
H       -5.88562082       1.45586109      -1.32397162      -0.00147516      -0.00051106      -0.00166099
H       -4.43631366      -1.09276836       3.01747077       0.00284213      -0.00013743      -0.00495905
H       -5.10129423       0.53095997       3.15278000      -0.00003987      -0.00147217      -0.00378820
H       -3.84565264       0.00494439       4.27626653      -0.00003240      -0.00043723      -0.00324282
H       -2.00194452       2.33783085       1.98741001      -0.00114753       0.00567680       0.00443306
H       -2.43044735       2.00880543       3.67123770      -0.00599559       0.00161543       0.00227638
H       -3.65833485       2.58048699       2.54361056      -0.00328126       0.00219054      -0.00025642
H       -1.87622358      -0.39774967      -3.56394965      -0.00101428      -0.00323159      -0.00415241
H       -3.35709057      -1.14629513      -4.17542275      -0.00285076      -0.00239711      -0.00092696
H       -1.85771155      -2.06655939      -4.17811825      -0.00411383      -0.00429338      -0.00134145
H       -3.82488939      -3.52773106      -1.30559584      -0.00027515       0.00079468       0.00240878
H       -3.13993135      -3.88117802      -2.90004260      -0.00163078      -0.00117490       0.00223925
H       -4.57794000      -2.86535104      -2.75277235      -0.00151991      -0.00101121       0.00222495
N        1.66864042       0.78348401      -2.02992754       0.00244652      -0.00643573      -0.00525060
C       -0.74456840       4.95558959       1.29912959       0.00464727      -0.00065345      -0.00071982
C       -1.73003763       4.77921400       0.33354296      -0.00198150      -0.00384828       0.00657632
H        1.04020684       4.15847399       2.18808871       0.00940606       0.00130517      -0.00850129
C        0.26418114       4.01316709       1.44701930       0.00480802      -0.00057329      -0.00328974
C       -1.71583025       3.65229060      -0.47122168      -0.00648111      -0.00611575       0.00934345
C       -0.71777597       2.69509891      -0.30942931      -0.00450620      -0.00442734       0.00454761
C        0.27616774       2.88424194       0.64022748       0.00016178      -0.00298038      -0.00055368
H       -2.46960745       3.48701895      -1.23060472      -0.01191325      -0.00827548       0.01494185
H        1.06515577       2.14730475       0.72931108       0.00047269      -0.00272763      -0.00301662
H       -0.76157095       5.83357546       1.93273774       0.00967382       0.00227638      -0.00446696
H       -2.50725553       5.52332342       0.21149768      -0.00291664      -0.00443677       0.00967464
C        2.74218414       1.54303167      -1.59914413       0.00297020      -0.00823458      -0.00408946
C        3.28346184       2.61787133      -2.32287855       0.00757736      -0.01131245      -0.00528777
C        3.36325691       1.21743178      -0.37861409      -0.00236490      -0.00511309      -0.00026824
C        4.38565948       3.31522999      -1.84562191       0.00163321      -0.00628228       0.00094612
H        2.83838502       2.92152069      -3.25957347       0.01493845      -0.01728028      -0.01073622
C        4.46060097       1.91456557       0.08599563      -0.00909669       0.00078221       0.00648669
H        2.98218977       0.36974168       0.18108321      -0.00260904      -0.00566481      -0.00122692
C        4.98991297       2.97438582      -0.64608609      -0.00831143       0.00168982       0.00823299
H        4.77454415       4.14228348      -2.42809345       0.00426076      -0.00781075       0.00049945
H        4.92329389       1.61539028       1.02024304      -0.01547962       0.00565371       0.01126901
H        5.85878110       3.51350857      -0.29226297      -0.01545303       0.00852538       0.01526197
C        1.26407169       0.98646455      -3.40902809      -0.00295898       0.00252887      -0.00223176
H        0.89331016       1.99931143      -3.61382787      -0.01795032      -0.00006599       0.01134339
H        2.10020832       0.79097094      -4.09139907      -0.00240504       0.02270203      -0.00710731
H        0.45533764       0.29890071      -3.65216441       0.00626391      -0.00642901      -0.00818344
