97
Properties=species:S:1:pos:R:3:forces:R:3 spin=1 charge=0 energy=-90906.33696383655 pbc="F F F"
C       -0.76317696       1.45622655      -1.15171693      -0.00089362      -0.00255614       0.00384755
O       -1.51815297       1.39718442      -2.09293683      -0.00570878      -0.00244058       0.00065760
Ni       0.42970717       0.09335088      -0.85094991       0.00046623      -0.00107922      -0.00331367
C       -0.53865724      -1.08202888       0.28230100       0.00114737       0.00170983      -0.00193167
N        0.17976583      -2.00503140       0.94339671       0.00112953       0.00238261      -0.00085655
N       -1.82680364      -1.35984955       0.48870323       0.00087409       0.00252675      -0.00107629
C       -0.62646211      -2.98530108       1.67147344       0.00094169       0.00369828       0.00060818
C        1.60800986      -2.00516287       0.98468141       0.00125538       0.00157668      -0.00084619
C       -2.04682940      -2.59115965       1.25667740       0.00093673       0.00372673       0.00065737
C       -2.93733172      -0.61237679      -0.01448375       0.00068939       0.00208485      -0.00137185
H       -0.36145632      -3.99892039       1.36666618       0.00047871       0.00327977       0.00173165
H       -0.46155748      -2.89746734       2.74753404       0.00133728       0.00506215       0.00041376
C        2.31529194      -2.60994822      -0.06067717       0.00126085       0.00169299      -0.00099077
C        2.25243731      -1.40771980       2.07543992       0.00151684      -0.00015451       0.00004910
H       -2.52245638      -3.34302067       0.62308785       0.00030613       0.00314922       0.00184529
H       -2.70105722      -2.39911339       2.10693158       0.00145304       0.00526458       0.00067449
C       -3.55551806       0.30559900       0.83976892       0.00097127       0.00293926      -0.00191936
C       -3.37845734      -0.83965157      -1.32019779      -0.00031200       0.00061451      -0.00086134
C        3.70540588      -2.57815876      -0.00627760       0.00127216      -0.00058513       0.00022054
C        1.61384495      -3.32681442      -1.19890813       0.00159185       0.00286816      -0.00199012
C        3.64137172      -1.42362663       2.09885658       0.00147961      -0.00282995       0.00134523
C        1.47847520      -0.75246599       3.20295463       0.00209589       0.00091144      -0.00012984
C       -4.62840815       1.03426423       0.33951625       0.00040686       0.00214035      -0.00201327
C       -3.12323484       0.48128647       2.28442882       0.00050920       0.00301308      -0.00172868
C       -4.45759438      -0.09282070      -1.77506507      -0.00096643      -0.00029973      -0.00083063
C       -2.73062516      -1.87696159      -2.21698991      -0.00084032      -0.00018768      -0.00034406
C        4.36225213      -1.99358218       1.06176627       0.00142335      -0.00322481       0.00155274
H        4.28056439      -3.01705497      -0.81156350       0.00120043      -0.00086109       0.00030038
C        1.79463653      -4.84123263      -1.05361989       0.00006378       0.00271474      -0.00175333
C        2.08889290      -2.84494567      -2.56981541       0.00361535       0.00163830      -0.00177415
H        0.54606198      -3.10872074      -1.12667615       0.00176246       0.00411292      -0.00313596
H        4.16782989      -0.96242254       2.92548597       0.00156545      -0.00491657       0.00248013
C        1.94189272       0.68405568       3.45021433       0.00383765       0.00037328       0.00005828
C        1.58457941      -1.58004123       4.48691613       0.00085742       0.00109826       0.00008839
H        0.42772719      -0.70643958       2.90757666       0.00222014       0.00229461      -0.00038414
C       -5.07176035       0.84085914      -0.95781257      -0.00062321       0.00048535      -0.00142240
H       -5.12234354       1.76149262       0.97227079       0.00046903       0.00247841      -0.00239083
C       -4.19047434      -0.07908497       3.23087943       0.00079037       0.00047306      -0.00289617
C       -2.81431987       1.93652726       2.63411210      -0.00213928       0.00295962       0.00084492
H       -2.20253474      -0.08874146       2.43225641       0.00140894       0.00441874      -0.00191533
H       -4.81202603      -0.22979767      -2.78862087      -0.00185894      -0.00166622      -0.00032445
C       -2.43769866      -1.34279997      -3.61918810      -0.00171376      -0.00209593      -0.00129316
C       -3.60500560      -3.13293102      -2.29397463      -0.00099653      -0.00019293       0.00144515
H       -1.77306723      -2.15370475      -1.77027340      -0.00055351       0.00026981      -0.00072311
H        5.44424900      -1.97172890       1.08195732       0.00145498      -0.00582389       0.00288906
H        1.43546125      -5.19854117      -0.08616789      -0.00109493       0.00292847      -0.00210704
H        2.84948703      -5.11213260      -1.13445828      -0.00002254       0.00207244      -0.00075797
H        1.25011123      -5.36891282      -1.83864874       0.00054201       0.00317702      -0.00239859
H        1.99356915      -1.76148092      -2.65917678       0.00602826       0.00178493      -0.00230079
H        1.49692157      -3.31665015      -3.35655347       0.00304037       0.00253407      -0.00189007
H        3.13434189      -3.10853351      -2.74247307       0.00310030      -0.00089550      -0.00111095
H        1.92742554       1.26884115       2.53079786       0.00482042       0.00068127       0.00020783
H        2.95806105       0.70995667       3.84840201       0.00374193      -0.00096293       0.00044926
H        1.28877257       1.17083318       4.17684596       0.00422544       0.00096582       0.00001821
H        1.24802674      -2.60744867       4.33619529      -0.00038924       0.00146397       0.00040744
H        0.98509164      -1.13420949       5.28269651       0.00136460       0.00213781      -0.00011503
H        2.62062295      -1.62215820       4.82964343       0.00076173      -0.00008152       0.00025395
H       -5.90356308       1.42232175      -1.33493854      -0.00128600      -0.00044038      -0.00134268
H       -4.43000138      -1.12025408       3.00596901       0.00238581       0.00033749      -0.00392601
H       -5.11587555       0.49416301       3.14443883       0.00004432      -0.00077557      -0.00315640
H       -3.85420943      -0.01816300       4.26785223       0.00001010       0.00020623      -0.00262750
H       -2.04343052       2.34692664       1.98451183      -0.00072710       0.00489122       0.00386222
H       -2.46741683       2.00699693       3.66728835      -0.00515321       0.00163274       0.00197340
H       -3.70348322       2.56322895       2.54144952      -0.00256480       0.00218200      -0.00049619
H       -1.88744863      -0.40521523      -3.56523953      -0.00046555      -0.00269780      -0.00326165
H       -3.35967600      -1.16938450      -4.17844219      -0.00205644      -0.00182403      -0.00067076
H       -1.85071945      -2.07378474      -4.17927031      -0.00321740      -0.00361659      -0.00090123
H       -3.80750095      -3.55233153      -1.30648470      -0.00043217       0.00082193       0.00198976
H       -3.12126583      -3.90051503      -2.90141560      -0.00142621      -0.00081181       0.00189117
H       -4.56762322      -2.89668383      -2.75303101      -0.00124885      -0.00054721       0.00178324
N        1.65496140       0.78578938      -2.03218571       0.00192527      -0.00538671      -0.00469810
C       -0.71923017       4.95037114       1.31530306       0.00334247      -0.00114631      -0.00030477
C       -1.70626037       4.78700013       0.34896996      -0.00230617      -0.00384413       0.00588056
H        1.05315224       4.12867543       2.20689494       0.00769649       0.00079574      -0.00715978
C        0.27578729       3.99382752       1.46522681       0.00378275      -0.00081656      -0.00274741
C       -1.70653105       3.65997396      -0.45586371      -0.00581788      -0.00550535       0.00796339
C       -0.72101402       2.68996518      -0.29366183      -0.00387892      -0.00386314       0.00363780
C        0.27333433       2.86510765       0.65820902       0.00009993      -0.00261753      -0.00065784
H       -2.46198158       3.50484227      -1.21572092      -0.01042473      -0.00735135       0.01267576
H        1.05191661       2.11728792       0.74824040       0.00059914      -0.00219583      -0.00291525
H       -0.72390063       5.82944464       1.94760691       0.00737161       0.00111860      -0.00323776
H       -2.47304935       5.54169849       0.22615759      -0.00336996      -0.00455178       0.00873283
C        2.73981301       1.52833753      -1.60252978       0.00222516      -0.00681896      -0.00353093
C        3.30913206       2.58201676      -2.33620637       0.00614340      -0.00930616      -0.00412444
C        3.34537852       1.20690910      -0.37278709      -0.00246055      -0.00422934      -0.00031338
C        4.42081331       3.26402329      -1.85864013       0.00114027      -0.00503345       0.00133142
H        2.87941529       2.88066637      -3.28158550       0.01239602      -0.01422322      -0.00854650
C        4.45116750       1.88959180       0.09257327      -0.00823260       0.00082919       0.00561659
H        2.94370711       0.37470567       0.19579195      -0.00283676      -0.00478300      -0.00135337
C        5.00707165       2.92940357      -0.64856430      -0.00736864       0.00169529       0.00733410
H        4.83142922       4.07439689      -2.44957428       0.00348386      -0.00629154       0.00124297
H        4.89869229       1.59505936       1.03567566      -0.01380718       0.00494734       0.00960284
H        5.88171635       3.45798990      -0.29314499      -0.01338108       0.00751011       0.01333852
C        1.24449147       1.00326095      -3.40712203      -0.00210937       0.00157064      -0.00228922
H        0.88392462       2.02230974      -3.60007156      -0.01380936      -0.00046086       0.00829239
H        2.07354549       0.80508529      -4.09731267      -0.00157537       0.01727125      -0.00599970
H        0.42694210       0.32650083      -3.65061315       0.00500831      -0.00552046      -0.00703659
