97
Properties=species:S:1:pos:R:3:forces:R:3 spin=1 charge=0 energy=-90906.34271640003 pbc="F F F"
C       -0.80267506       1.45062990      -1.11296656       0.00002812      -0.00109885       0.00038505
O       -1.57915984       1.40124814      -2.03679855      -0.00132445      -0.00043643      -0.00138656
Ni       0.39951998       0.08815201      -0.85126902       0.00014542      -0.00071136      -0.00236926
C       -0.55515049      -1.08883680       0.28629815       0.00071153       0.00094300      -0.00115377
N        0.17393364      -1.99342063       0.96106561       0.00063517       0.00093867      -0.00101953
N       -1.84029555      -1.38416932       0.48590649       0.00056175       0.00201094       0.00004404
C       -0.62194326      -2.98680798       1.68305263       0.00036439       0.00247629       0.00077619
C        1.60221048      -1.97273237       1.01161398       0.00071215       0.00029334      -0.00093556
C       -2.04699030      -2.60724336       1.27056880       0.00043804       0.00249749       0.00065476
C       -2.95958027      -0.65501682      -0.02592569       0.00054726       0.00175700      -0.00030101
H       -0.34510819      -3.99536165       1.37209295      -0.00019321       0.00185607       0.00230440
H       -0.45938206      -2.90393839       2.75932737       0.00071298       0.00416232       0.00059441
C        2.32693968      -2.54674319      -0.03962047       0.00076520       0.00008338      -0.00084844
C        2.23042803      -1.38452554       2.11725186       0.00089972      -0.00061214      -0.00048126
H       -2.52217663      -3.37011002       0.65030294       0.00027198       0.00232089       0.00098960
H       -2.69635833      -2.40831077       2.12270958       0.00049619       0.00308704       0.00055559
C       -3.59190231       0.26297029       0.81819564       0.00042372       0.00204732      -0.00059957
C       -3.39450675      -0.89858279      -1.33048979       0.00023981       0.00091906      -0.00008671
C        3.71604411      -2.50044137       0.02929356       0.00076167      -0.00169896       0.00008884
C        1.64613376      -3.25032978      -1.19878735       0.00105719       0.00109481      -0.00167197
C        3.61917217      -1.38766558       2.15480121       0.00087011      -0.00242737       0.00040162
C        1.44050158      -0.74685686       3.24403937       0.00140375       0.00021538      -0.00055981
C       -4.67506942       0.97046104       0.30990882       0.00000234       0.00133313      -0.00071619
C       -3.16694125       0.45508065       2.26288385       0.00020687       0.00231119      -0.00053027
C       -4.48610693      -0.17461503      -1.79275467      -0.00014884       0.00025451      -0.00016089
C       -2.72294470      -1.92445563      -2.22248639       0.00000242       0.00034785       0.00033158
C        4.35629003      -1.93194600       1.11564661       0.00087511      -0.00316136       0.00079475
H        4.30394736      -2.91454580      -0.77966129       0.00074295      -0.00229659       0.00039085
C        1.79411592      -4.76745758      -1.04444180      -0.00056374       0.00093842      -0.00167284
C        2.17046535      -2.78327184      -2.55684567       0.00299946       0.00024890      -0.00124433
H        0.58101611      -3.01147575      -1.15963123       0.00127479       0.00229701      -0.00272848
H        4.13261831      -0.93539085       2.99440801       0.00090173      -0.00359233       0.00099511
C        1.91505194       0.67838080       3.53496041       0.00196615       0.00019281      -0.00122733
C        1.51212427      -1.60146764       4.51283143       0.00172578       0.00087679      -0.00010982
H        0.39668996      -0.68247160       2.92759880       0.00131198       0.00048975      -0.00019279
C       -5.11583488       0.75654228      -0.98505060      -0.00033523       0.00042653      -0.00046428
H       -5.18017993       1.69681277       0.93460421      -0.00027231       0.00130891      -0.00091197
C       -4.21242243      -0.15229204       3.20518848       0.00014580       0.00192523      -0.00082804
C       -2.92126098       1.92053992       2.62061868      -0.00041655       0.00221829       0.00025776
H       -2.22291604      -0.07593464       2.40969235       0.00037366       0.00264379      -0.00042288
H       -4.83750121      -0.32681258      -2.80519812      -0.00049530      -0.00054026       0.00006894
C       -2.44168314      -1.38363170      -3.62457844       0.00037464      -0.00066447       0.00000118
C       -3.56635803      -3.20136355      -2.29705280      -0.00058897       0.00071783       0.00070411
H       -1.75943451      -2.17697994      -1.77449518      -0.00016211       0.00011383       0.00050590
H        5.43775988      -1.89983805       1.14731883       0.00087974      -0.00509985       0.00177230
H        1.39773202      -5.11607293      -0.08843932      -0.00157759       0.00117039      -0.00202868
H        2.84663923      -5.05547110      -1.08973607      -0.00074691       0.00010991      -0.00091996
H        1.26662688      -5.28776819      -1.84582916      -0.00032039       0.00152100      -0.00220232
H        2.10710592      -1.69767487      -2.64856660       0.00434539       0.00027140      -0.00167960
H        1.58388124      -3.23788534      -3.35753991       0.00321251       0.00065463      -0.00166415
H        3.21091416      -3.07916857      -2.70523952       0.00274170      -0.00114237      -0.00020363
H        1.94606231       1.28101721       2.62731310       0.00081413       0.00031070      -0.00117154
H        2.91474202       0.68106196       3.97365347       0.00253181       0.00005023      -0.00249028
H        1.24171857       1.16187630       4.24506308       0.00294064       0.00016465      -0.00026739
H        1.16921932      -2.62243240       4.33624699       0.00156444       0.00082255       0.00057761
H        0.90151877      -1.16524985       5.30555082       0.00214168       0.00142760      -0.00013196
H        2.54090855      -1.66065176       4.87444578       0.00186199       0.00097688      -0.00049969
H       -5.95677849       1.32078133      -1.36797075      -0.00084320      -0.00034110      -0.00043947
H       -4.41356940      -1.19974223       2.97258275       0.00057185       0.00184909      -0.00076461
H       -5.15852587       0.38639185       3.12028450       0.00003039       0.00162574      -0.00117211
H       -3.88007041      -0.08628310       4.24308278      -0.00013716       0.00222176      -0.00074992
H       -2.16916700       2.36931415       1.97407623       0.00085185       0.00244523       0.00195974
H       -2.57759084       1.99888815       3.65424113      -0.00237045       0.00172960       0.00094104
H       -3.83722763       2.50830282       2.53406405      -0.00019936       0.00235189      -0.00118921
H       -1.92030639      -0.42930888      -3.56949172       0.00151709      -0.00124120      -0.00078447
H       -3.36655482      -1.23855683      -4.18709237       0.00048192       0.00001314       0.00000861
H       -1.83065132      -2.09617149      -4.18257831      -0.00055149      -0.00179527       0.00036549
H       -3.75516204      -3.62485505      -1.30858281      -0.00091146       0.00115499       0.00083590
H       -3.06556519      -3.95754643      -2.90498653      -0.00085921       0.00030757       0.00101139
H       -4.53603871      -2.98966571      -2.75321019      -0.00041147       0.00102755       0.00049388
N        1.61523764       0.79429407      -2.03597379       0.00092167      -0.00297548      -0.00288220
C       -0.64381122       4.93504157       1.36411519      -0.00056235      -0.00213143       0.00107056
C       -1.63484263       4.80970955       0.39608077      -0.00319762      -0.00361756       0.00393797
H        1.09025774       4.04219006       2.26316501       0.00263020      -0.00021309      -0.00312183
C        0.30950605       3.93802157       1.52004344       0.00078326      -0.00116443      -0.00104194
C       -1.67798840       3.68324859      -0.40865102      -0.00379921      -0.00366709       0.00403304
C       -0.73042071       2.67639528      -0.24526801      -0.00187260      -0.00217951       0.00118895
C        0.26413463       2.81060600       0.71292534       0.00001987      -0.00136048      -0.00086227
H       -2.43764781       3.55805337      -1.16982950      -0.00591373      -0.00472394       0.00621518
H        1.01103926       2.03154215       0.80620165       0.00110486      -0.00045666      -0.00258151
H       -0.61161228       5.81655974       1.99217648       0.00044304      -0.00175977       0.00045663
H       -2.37009721       5.59471442       0.27092756      -0.00464144      -0.00463384       0.00604911
C        2.73283962       1.48567997      -1.61055246       0.00048505      -0.00306202      -0.00175174
C        3.38017692       2.47378179      -2.37148917       0.00214691      -0.00379743      -0.00124898
C        3.29633453       1.17834522      -0.35663270      -0.00227260      -0.00174932      -0.00011737
C        4.51969662       3.10894530      -1.89466118      -0.00057638      -0.00131681       0.00197334
H        2.99227733       2.75617290      -3.33953780       0.00528817      -0.00605256      -0.00319239
C        4.42713630       1.81712825       0.10919163      -0.00540468       0.00111491       0.00333591
H        2.83678387       0.39480305       0.23690502      -0.00257416      -0.00230675      -0.00107764
C        5.05744811       2.79437902      -0.65719593      -0.00491131       0.00189505       0.00468650
H        4.99096806       3.86736324      -2.50881335       0.00055571      -0.00157532       0.00253885
H        4.83308939       1.53806973       1.07558157      -0.00844675       0.00310332       0.00520173
H        5.94955893       3.29075499      -0.29891264      -0.00787921       0.00492083       0.00784500
C        1.19125404       1.05116938      -3.39947831       0.00018581      -0.00114735      -0.00225873
H        0.87270400       2.08949389      -3.56432321      -0.00360628      -0.00181798       0.00075792
H        1.99655657       0.83252622      -4.11129292       0.00065333       0.00362648      -0.00313686
H        0.34141885       0.41455470      -3.63928564       0.00243269      -0.00364612      -0.00384530
