97
Properties=species:S:1:pos:R:3:forces:R:3 spin=1 charge=0 energy=-90906.08187407673 pbc="F F F"
C       -0.05707463       1.84760005      -1.74093060      -0.00012824       0.00430075      -0.00319850
O       -0.87374011       1.65645437      -2.65179720      -0.00053594       0.00546393      -0.00285335
Ni       0.41463477       0.16395331      -0.70735031      -0.00257809       0.00262752      -0.00010288
C       -0.48364882      -1.11408836       0.30971744       0.00003596      -0.00000662      -0.00066234
N        0.17750590      -2.14765972       0.87738316       0.00005887       0.00029979      -0.00003936
N       -1.78837408      -1.31158418       0.56031244       0.00001009      -0.00074012      -0.00102862
C       -0.67691417      -3.05047207       1.64570583       0.00025463       0.00128238       0.00133339
C        1.60084630      -2.22156822       0.87926066      -0.00009559      -0.00027567       0.00060425
C       -2.07256479      -2.59085394       1.21395568       0.00022961       0.00001219       0.00040343
C       -2.83494011      -0.46379744       0.08514826       0.00024714      -0.00080962      -0.00111618
H       -0.47627924      -4.09249427       1.39201856       0.00075236       0.00092216       0.00328936
H       -0.50842255      -2.92228362       2.72018990       0.00004660       0.00331702       0.00114422
C        2.23908689      -2.95148337      -0.12877080      -0.00011228      -0.00085938       0.00102387
C        2.32152056      -1.54476847       1.86917441      -0.00042300      -0.00063292       0.00102839
H       -2.53310618      -3.28295473       0.50265855       0.00064835      -0.00114135       0.00127593
H       -2.75760943      -2.45631615       2.05187118      -0.00000646       0.00089768       0.00009457
C       -3.39341540       0.45940141       0.97308442       0.00091284      -0.00034244      -0.00128416
C       -3.28193040      -0.59035012      -1.23408276       0.00036287      -0.00098236      -0.00108712
C        3.62964807      -2.95403074      -0.15751867      -0.00012068      -0.00149450       0.00169407
C        1.45571864      -3.72421986      -1.17084989      -0.00027920       0.00007022       0.00038142
C        3.71075625      -1.58006948       1.80902260      -0.00040408      -0.00151295       0.00189025
C        1.63039675      -0.79850629       2.99317929      -0.00104145       0.00100659      -0.00040860
C       -4.39819982       1.29677894       0.50196627       0.00154090       0.00025305      -0.00150492
C       -2.93049291       0.56841802       2.41259836       0.00148099      -0.00106109      -0.00142860
C       -4.28696337       0.26812416      -1.66402948       0.00107387      -0.00035475      -0.00141905
C       -2.74786985      -1.66461945      -2.16148453       0.00030558      -0.00165892      -0.00035037
C        4.36123512      -2.26794092       0.79749441      -0.00026794      -0.00187017       0.00214860
H        4.14709589      -3.49659701      -0.93962714       0.00004059      -0.00161645       0.00187962
C        1.77793815      -5.21836911      -1.09969185       0.00034100       0.00007807      -0.00270059
C        1.69736471      -3.16984304      -2.57472118      -0.00153201       0.00259675       0.00115908
H        0.39447722      -3.59641535      -0.94977556      -0.00021354      -0.00087420       0.00125137
H        4.29161042      -1.05756622       2.55993246      -0.00049338      -0.00181680       0.00216089
C        2.01146821       0.68128012       3.00645394      -0.00117552       0.00107218      -0.00316904
C        1.93035167      -1.46121803       4.34014622      -0.00227097       0.00381182       0.00124210
H        0.55386976      -0.84865543       2.81992894      -0.00093026       0.00073332      -0.00101196
C       -4.83632603       1.20801865      -0.80799305       0.00171265       0.00026685      -0.00161387
H       -4.83614741       2.03274820       1.16578674       0.00194908       0.00071543      -0.00172554
C       -4.07683725       0.29484930       3.38834988       0.00148324       0.00004362      -0.00115160
C       -2.28985407       1.92938806       2.67687209       0.00394682      -0.00225034      -0.00135716
H       -2.16102268      -0.18922696       2.57611267       0.00041628      -0.00221300      -0.00182591
H       -4.64173558       0.20429393      -2.68486769       0.00121842      -0.00017058      -0.00149114
C       -2.38453156      -1.12412431      -3.54396894      -0.00055251      -0.00280601      -0.00099778
C       -3.76688292      -2.80314564      -2.28252576       0.00092667      -0.00243277       0.00152449
H       -1.83342134      -2.06471398      -1.71781761       0.00073470      -0.00073577      -0.00045262
H        5.44335056      -2.27530569       0.75733261      -0.00028763      -0.00236779       0.00264379
H        1.60043964      -5.61486598      -0.09820251      -0.00073332      -0.00247725      -0.00390951
H        2.82335438      -5.40862896      -1.35092330       0.00064313       0.00100166      -0.00204679
H        1.15907653      -5.77610584      -1.80482482       0.00132580       0.00162081      -0.00479643
H        1.41584901      -2.11655924      -2.62308265      -0.00119617       0.00278293       0.00355498
H        1.10677311      -3.71979471      -3.31028596      -0.00259963       0.00426438       0.00075535
H        2.74920288      -3.25728273      -2.85713018      -0.00186336       0.00264482      -0.00007361
H        1.74911149       1.15058842       2.05736343       0.00109023      -0.00140157      -0.00506109
H        3.08291449       0.81522888       3.17321304      -0.00158892       0.00147983      -0.00085484
H        1.48076786       1.20324171       3.80543333      -0.00325998       0.00302425      -0.00581559
H        1.65304100      -2.51725083       4.33430762      -0.00446919       0.00437269       0.00412256
H        1.38207509      -0.96561939       5.14331554      -0.00138762       0.00705667      -0.00012527
H        2.99533598      -1.40158477       4.57492343      -0.00221446       0.00231252       0.00129449
H       -5.61370447       1.87273726      -1.16387314       0.00235647       0.00081555      -0.00191654
H       -4.52764619      -0.68386167       3.21190845       0.00055065       0.00048925      -0.00133759
H       -4.86464042       1.04402417       3.28780622       0.00213701       0.00077907      -0.00078911
H       -3.71707358       0.32762089       4.41872389       0.00179618      -0.00064967      -0.00126438
H       -1.46413699       2.10902501       1.98816523       0.00420540      -0.00372148      -0.00152070
H       -1.91018693       1.98459826       3.70010502       0.00434027      -0.00323368      -0.00143299
H       -3.01434320       2.73585297       2.54392335       0.00545517      -0.00087367      -0.00103695
H       -1.72220231      -0.26306735      -3.46348829      -0.00137945      -0.00200036      -0.00209076
H       -3.27626191      -0.81638376      -4.09532181      -0.00092730      -0.00436271      -0.00128509
H       -1.89653698      -1.90624972      -4.13059409       0.00021283      -0.00293362      -0.00017632
H       -4.03868207      -3.21439039      -1.30818485       0.00350385      -0.00289281       0.00205359
H       -3.36927449      -3.61149167      -2.89985527       0.00023522      -0.00202521       0.00054996
H       -4.68430452      -2.44085562      -2.75241082      -0.00047374      -0.00315541       0.00372375
N        1.30659912       1.35267369      -1.92663653      -0.00179652       0.00114856      -0.00187586
C       -1.12770092       4.90302086       1.09805182       0.00185007      -0.00023913       0.00300001
C       -1.96219602       4.53391800       0.05270214       0.00055560       0.00026275       0.00387434
H        0.73982361       4.51673256       2.08288915       0.00500706       0.00202843      -0.00209099
C        0.08606905       4.25060048       1.26140266       0.00341475       0.00180811      -0.00075091
C       -1.57591637       3.54044068      -0.83170265       0.00047727       0.00231575       0.00149209
C       -0.34742285       2.89184837      -0.69012487       0.00139207       0.00333671      -0.00157705
C        0.47170093       3.24802825       0.38363800       0.00320860       0.00356277      -0.00287781
H       -2.21144013       3.24552912      -1.65528152      -0.00054858       0.00302073       0.00203219
H        1.41608036       2.75299658       0.54905290       0.00469999       0.00561005      -0.00538933
H       -1.42361318       5.68611627       1.78469424       0.00169237      -0.00220968       0.00523270
H       -2.91776406       5.02598078      -0.08121826      -0.00052042      -0.00114255       0.00657842
C        2.47142665       2.08906956      -1.50163650      -0.00110744      -0.00001164      -0.00211766
C        2.70730380       3.35814770      -2.01019400      -0.00292118       0.00262100       0.00352664
C        3.38094081       1.49574323      -0.63886704       0.00002484      -0.00311954      -0.00549505
C        3.84998938       4.04756534      -1.63366808      -0.00390711       0.00242658       0.00696323
H        1.98639017       3.80280610      -2.68591637      -0.00410786       0.00533907       0.00658179
C        4.52225314       2.19021304      -0.26308692      -0.00065261      -0.00360458      -0.00268742
H        3.17404031       0.50147743      -0.25500279       0.00079874      -0.00491128      -0.00970307
C        4.75713938       3.46648842      -0.75749515      -0.00284708      -0.00062710       0.00380099
H        4.03246041       5.03989919      -2.02521058      -0.00577838       0.00502185       0.01257757
H        5.22739304       1.73291926       0.41968470       0.00005172      -0.00603587      -0.00510225
H        5.64768779       4.00695638      -0.46396202      -0.00379310      -0.00066073       0.00666710
C        1.54020895       0.75282258      -3.25579706      -0.00203599      -0.00340253       0.00019317
H        1.63175702       1.53702860      -4.01153328       0.00094728      -0.00613527      -0.00230172
H        2.46440671       0.17864972      -3.21010103      -0.00370631      -0.00586598       0.00317031
H        0.70695987       0.10970703      -3.51733783      -0.00343843      -0.00219770       0.00156536
