97
Properties=species:S:1:pos:R:3:forces:R:3 spin=3 charge=0 energy=-90904.77464694202 pbc="F F F"
C       -0.47525889       1.93274856      -1.86386216       0.00095477      -0.00590266       0.00206912
O       -0.91247248       2.11114795      -2.97923830      -0.00312965      -0.00514720       0.00361436
Ni       0.17535192       0.24260442      -0.80150800       0.00179810      -0.00911401      -0.00485491
C       -0.55248069      -1.09803167       0.36689220      -0.00029037      -0.00740261      -0.00207684
N        0.18558483      -2.05232401       0.94598274      -0.00179874      -0.00518514       0.00340601
N       -1.83540647      -1.36355354       0.61851977      -0.00073528      -0.00554307      -0.00252035
C       -0.61093086      -3.00761051       1.71947744      -0.00316470      -0.00125695       0.00696448
C        1.61503388      -2.05339805       0.94932062      -0.00191263      -0.00543203       0.00427435
C       -2.03114997      -2.66805772       1.25851454      -0.00266411      -0.00175354       0.00484184
C       -2.92136817      -0.56600720       0.13623295       0.00037977      -0.00390667      -0.00218017
H       -0.32048226      -4.03176472       1.48457416      -0.00414885      -0.00258295       0.01142585
H       -0.46742895      -2.84251597       2.79134701      -0.00355982       0.00284574       0.00639570
C        2.28565801      -2.74626949      -0.06302450      -0.00165314      -0.00449333       0.00384213
C        2.29859599      -1.36375669       1.95629636      -0.00249007      -0.00465019       0.00412776
H       -2.40863322      -3.38623178       0.52514661      -0.00385088      -0.00547996       0.00912274
H       -2.74587621      -2.60288721       2.07806539      -0.00254288       0.00393661       0.00449879
C       -3.58055645       0.26605342       1.04439670       0.00225492      -0.00273904      -0.00192979
C       -3.27670807      -0.62641569      -1.21537925       0.00043781      -0.00234628      -0.00231088
C        3.67590188      -2.71700196      -0.06432122      -0.00169015      -0.00309164       0.00345565
C        1.54160900      -3.53107449      -1.12488814      -0.00132158      -0.00175197       0.00158324
C        3.68921661      -1.38239021       1.93058333      -0.00249848      -0.00306559       0.00352885
C        1.57142944      -0.61533176       3.05609632      -0.00312735      -0.00306812       0.00277110
C       -4.60336757       1.07642434       0.56433088       0.00351136      -0.00095297      -0.00142867
C       -3.19768327       0.31736365       2.51056238       0.00422697      -0.00004717      -0.00251501
C       -4.30302017       0.20307002      -1.65174365       0.00230344       0.00020788      -0.00190772
C       -2.61832103      -1.59675847      -2.17649712      -0.00075835      -0.00249077      -0.00300147
C        4.37304817      -2.04413128       0.92455384      -0.00216053      -0.00225130       0.00318088
H        4.22003146      -3.22798974      -0.84915724      -0.00144328      -0.00186792       0.00281489
C        1.86717858      -5.02249679      -1.01470502       0.00003795      -0.00195349      -0.00521494
C        1.83080782      -2.99778741      -2.52786321      -0.00227398       0.00542254       0.00399588
H        0.47168249      -3.40871485      -0.94472725      -0.00136169      -0.00388740       0.00266477
H        4.24481803      -0.85576196       2.69695532      -0.00276000      -0.00196000       0.00294539
C        2.02855809       0.84111732       3.15250659      -0.00398595      -0.00252815      -0.00131345
C        1.74954466      -1.33288186       4.39653045      -0.00305463       0.00143819       0.00516143
H        0.50688317      -0.60236031       2.81191673      -0.00313054      -0.00437251       0.00264694
C       -4.95713941       1.05080453      -0.77320607       0.00360935       0.00068239      -0.00140589
H       -5.12024900       1.74409254       1.24296480       0.00517537      -0.00001667      -0.00106600
C       -4.39951967       0.03236282       3.41371236       0.00550148       0.00183750      -0.00017951
C       -2.54421390       1.65517424       2.85719367       0.00369788       0.00162202      -0.00775880
H       -2.45333243      -0.46015325       2.69359658       0.00502610       0.00095220      -0.00136598
H       -4.58987666       0.19139759      -2.69510329       0.00300448       0.00219995      -0.00206983
C       -2.30685271      -0.96634019      -3.53323766      -0.00347759      -0.00283946      -0.00379521
C       -3.49933545      -2.83855234      -2.34967159      -0.00005114      -0.00332540      -0.00068160
H       -1.66759663      -1.91001562      -1.73874748       0.00020952      -0.00164140      -0.00451981
H        5.45547655      -2.03034620       0.90728248      -0.00220729      -0.00033205       0.00232641
H        1.65537262      -5.40061101      -0.01246231      -0.00089789      -0.00693672      -0.00729154
H        2.92266100      -5.20944452      -1.22163128       0.00032409      -0.00035865      -0.00504684
H        1.27816043      -5.59763753      -1.73108981       0.00113302       0.00099116      -0.00851044
H        1.55958450      -1.94394697      -2.60919013      -0.00042446       0.00653355       0.01021763
H        1.26322445      -3.55966541      -3.27247675      -0.00394725       0.01053541       0.00142347
H        2.89012697      -3.09142671      -2.77645307      -0.00263824       0.00514119       0.00254818
H        1.92737175       1.35051332       2.19383349      -0.00441137      -0.00536191      -0.00274482
H        3.07385982       0.91126621       3.46042196      -0.00396773      -0.00132780      -0.00167376
H        1.42870654       1.37596228       3.89139637      -0.00414073      -0.00067294      -0.00279358
H        1.40827525      -2.36863635       4.34421212      -0.00279843       0.00116392       0.00913774
H        1.19130738      -0.82465098       5.18469368      -0.00346056       0.00427748       0.00309667
H        2.80262538      -1.34926854       4.68553789      -0.00318724       0.00301042       0.00570908
H       -5.74887353       1.69477820      -1.13480956       0.00526977       0.00286779      -0.00105643
H       -4.88276069      -0.91000624       3.14841985       0.00790840      -0.00107703       0.00568143
H       -5.14909643       0.82182058       3.33496982       0.00322623      -0.00078721      -0.00461831
H       -4.08778888      -0.02274217       4.45835428       0.00599301       0.00895241       0.00004670
H       -1.67604224       1.84473387       2.22415652       0.00299018      -0.00013780      -0.00933029
H       -2.22392795       1.66565392       3.90189368       0.00454843       0.00601343      -0.00807699
H       -3.24406654       2.48089034       2.71106345       0.00295746       0.00048688      -0.01052335
H       -1.78645115      -0.01499235      -3.42294547      -0.00328447      -0.00279015      -0.00484744
H       -3.21901484      -0.78771288      -4.10686950      -0.00461173      -0.00304424      -0.00208241
H       -1.68422784      -1.64405220      -4.12158043      -0.00462880      -0.00291518      -0.00487574
H       -3.71786965      -3.32181538      -1.39526990       0.00149360      -0.00245853       0.00010648
H       -3.01314492      -3.56670655      -3.00197445      -0.00022965      -0.00368673      -0.00040908
H       -4.45388476      -2.56218989      -2.80323405      -0.00081934      -0.00460944       0.00007016
N        1.39487754       1.10750988      -2.00994560      -0.00040678      -0.00251212      -0.00476532
C       -1.11209081       4.70090176       1.33587278       0.01331685      -0.00001103      -0.00006820
C       -1.97446223       4.63203271       0.24855494       0.00739385      -0.00474815       0.00492044
H        0.70009345       3.95255639       2.20679086       0.01863443       0.00416916      -0.00735112
C        0.02160633       3.89993979       1.36403044       0.01372253       0.00057899      -0.00318504
C       -1.70678561       3.76815267      -0.80016268       0.00276812      -0.00763500       0.00617369
C       -0.56891434       2.95458698      -0.77488480       0.00378198      -0.00630620       0.00259531
C        0.28974638       3.02567078       0.32006381       0.00862781      -0.00299701      -0.00148544
H       -2.37203436       3.69907721      -1.65106284      -0.00136698      -0.01069696       0.00966193
H        1.18488990       2.41798588       0.34738903       0.00887230      -0.00237596      -0.00354138
H       -1.32596717       5.37262473       2.15769018       0.01768776       0.00327831      -0.00162113
H       -2.86007410       5.25535972       0.21814433       0.00654079      -0.00582008       0.00759729
C        2.58818443       1.73454291      -1.60507878      -0.00308575       0.00071989      -0.00187741
C        3.09973423       2.85847046      -2.25831930      -0.00486648       0.00229700      -0.00071837
C        3.31137869       1.20910090      -0.53197857      -0.00418566       0.00342196       0.00027491
C        4.29758125       3.42613854      -1.85145456      -0.00747766       0.00587873       0.00169847
H        2.54620057       3.28768900      -3.08446132      -0.00415709       0.00103554      -0.00179322
C        4.50472787       1.78173051      -0.12176120      -0.00711444       0.00752248       0.00308604
H        2.92970662       0.31933232      -0.04376202      -0.00285130       0.00276936       0.00038169
C        5.00894266       2.89368663      -0.78317074      -0.00844274       0.00849441       0.00357815
H        4.68088695       4.29487922      -2.37262873      -0.00888042       0.00670586       0.00198222
H        5.05205577       1.34276029       0.70485917      -0.00816275       0.01004709       0.00508068
H        5.94773386       3.33616300      -0.47597994      -0.01030091       0.01112328       0.00533822
C        1.39441569       0.72226821      -3.41221915       0.00029927       0.01067062      -0.00856287
H        1.39728055       1.57667866      -4.09578792      -0.00556833       0.01757274       0.00004258
H        2.26771901       0.09867655      -3.63252550       0.00424642       0.01866286      -0.01526823
H        0.49549493       0.14690350      -3.63115374       0.00369325       0.00757973      -0.01389243