67
 energy: -100.177192047653 gnorm: 0.000359327436 xtb: 6.6.1 (8d0f1dd)
C           -1.68588814580000       -0.36082114900000       -1.28826262830000
C           -1.37526782420000        0.76454902740000       -1.90911982400000
C           -2.37488421380000        1.85200984140000       -2.18306475420000
O           -1.88504950060000        3.16255723600000       -1.99514732620000
C           -1.83415974360000        3.57888711660000       -0.64443009410000
C           -0.76985277980000        2.87333852840000        0.15979022530000
C            0.56320556670000        3.17641251450000       -0.05965493600000
C            1.57257873000000        2.50473211170000        0.61807354490000
C            1.22266582710000        1.56102423620000        1.57498370500000
C           -0.10263134630000        1.24496726610000        1.80030884970000
C           -1.11343011930000        1.87051683960000        1.07840994430000
O           -2.43692250390000        1.58494875740000        1.21601582920000
C           -2.80746445270000        0.45918703750000        1.98710036020000
C           -4.28264366280000        0.16670934500000        1.70224257160000
N           -4.44801760020000       -0.62005152610000        0.50308094100000
C           -5.75288789450000       -0.51889519410000       -0.12240235680000
C           -5.70296135420000       -1.59743853120000       -1.20359334730000
C           -4.78329823600000       -2.67782075790000       -0.60629093110000
C           -4.22729797210000       -2.04639639900000        0.67668585470000
N            2.92661112100000        2.75221454150000        0.33583994020000
C            3.80557557550000        1.74646315420000        0.10028985340000
N            5.06480477340000        2.08072042730000       -0.20899713010000
C            5.88954361430000        1.06922679030000       -0.41466681310000
C            5.50425866580000       -0.26215899350000       -0.35534020050000
C            4.15823064460000       -0.50688138080000       -0.06561178610000
N            3.33897754530000        0.50732164580000        0.17508870900000
C            3.51257368700000       -1.82718614530000       -0.03992295610000
C            4.17233081570000       -3.01217745380000       -0.35256896390000
C            3.47500356200000       -4.20737259000000       -0.36755476150000
C            2.11825820650000       -4.23688225420000       -0.09442463190000
C            1.44732302060000       -3.06309537020000        0.22968449870000
C            2.15294963960000       -1.87470586140000        0.27085697790000
C           -0.03349207560000       -3.07686652890000        0.53325701100000
O           -0.70562422760000       -1.86727148000000        0.27710290180000
C           -0.74131100410000       -1.50583341970000       -1.09515125020000
H           -2.67896139630000       -0.50220004430000       -0.88440856940000
H           -0.38000481980000        0.94319853140000       -2.29459417640000
H           -3.27497542740000        1.68776086100000       -1.57477747800000
H           -2.65241488170000        1.81546802900000       -3.24456803330000
H           -2.81195779900000        3.42750114790000       -0.16911485040000
H           -1.61660223690000        4.64991885730000       -0.69449462300000
H            0.81126170890000        3.93026240080000       -0.79319491900000
H            1.99475298240000        1.06308553180000        2.13813505990000
H           -0.33769685740000        0.49709999620000        2.53971341680000
H           -2.67389130320000        0.67913766550000        3.05623865830000
H           -2.19198497630000       -0.40345356890000        1.71263726060000
H           -4.78799440540000        1.12492592380000        1.55938744690000
H           -4.72970858820000       -0.33258293850000        2.58174787120000
H           -5.89884270210000        0.48258585370000       -0.53050903980000
H           -6.56751468320000       -0.72801077020000        0.59407196500000
H           -5.26341538710000       -1.18744717030000       -2.11198560370000
H           -6.69413737190000       -1.97883778430000       -1.44189559030000
H           -3.97949310460000       -2.92225451410000       -1.29856408180000
H           -5.32795980190000       -3.59441494160000       -0.38409358990000
H           -3.16602858160000       -2.25159849020000        0.81803423170000
H           -4.77432462980000       -2.42439828760000        1.55984559290000
H            3.20861239190000        3.67298431190000        0.03555912350000
H            6.91007535710000        1.34600051610000       -0.65015975390000
H            6.21425221160000       -1.05017126620000       -0.53755367990000
H            5.22411358760000       -3.00977156040000       -0.59410436890000
H            3.99128400360000       -5.12460716450000       -0.61102349350000
H            1.57976187150000       -5.17343561760000       -0.13123878320000
H            1.64870519540000       -0.95584267740000        0.52689962390000
H           -0.18274195340000       -3.26097292600000        1.60402958220000
H           -0.51009041040000       -3.90020986470000       -0.02573081660000
H           -1.09711635360000       -2.37249650990000       -1.68137138730000
H            0.26397573450000       -1.24502207290000       -1.45215825090000
