97
Properties=species:S:1:pos:R:3 spin=1 charge=0 pbc="F F F" -3340.736528
C       -0.02865722       1.85772245      -1.78355802
O       -0.81297477       1.66730725      -2.72123845
Ni       0.43519786       0.18188592      -0.69673870
C       -0.46995338      -1.10340289       0.30977430
N        0.17998150      -2.15824004       0.85377085
N       -1.77532482      -1.28360865       0.57414758
C       -0.68115500      -3.05536472       1.62355402
C        1.60258900      -2.25084515       0.84678854
C       -2.07160349      -2.57700261       1.19460734
C       -2.81602199      -0.42309751       0.10877470
H       -0.48917726      -4.09884664       1.36543697
H       -0.50769825      -2.93191722       2.69939597
C        2.22475237      -3.00933432      -0.14936474
C        2.33917541      -1.56480452       1.81775834
H       -2.53073588      -3.24760511       0.46090495
H       -2.76041489      -2.46013014       2.03204491
C       -3.36362486       0.49772296       1.00533794
C       -3.26616198      -0.53303712      -1.21074992
C        3.61451608      -3.02192210      -0.19424921
C        1.42658307      -3.80045997      -1.16522760
C        3.72715985      -1.60740671       1.74142058
C        1.66724612      -0.80937270       2.94652833
C       -4.35670301       1.35298014       0.54176116
C       -2.89632464       0.59515319       2.44392391
C       -4.26061639       0.34151073      -1.63305003
C       -2.75240105      -1.60880768      -2.14748121
C        4.36076582      -2.31795098       0.73552562
H        4.11916121      -3.58979469      -0.96637976
C        1.77480584      -5.28857488      -1.09464709
C        1.62697489      -3.24784240      -2.57667750
H        0.36862724      -3.69061382      -0.91905030
H        4.31862232      -1.07827530       2.47926619
C        2.03246428       0.67414543       2.92915113
C        2.01520746      -1.45221514       4.29105173
H        0.58721124      -0.87532300       2.80420913
C       -4.79566412       1.28230063      -0.76897436
H       -4.78294643       2.09024310       1.21196528
C       -4.05314565       0.37930400       3.42166742
C       -2.20878233       1.93647670       2.69012392
H       -2.15785338      -0.19171366       2.61496435
H       -4.61837251       0.28819453      -2.65375750
C       -2.37048599      -1.05932074      -3.52125835
C       -3.80232974      -2.71669182      -2.28813972
H       -1.85212229      -2.04075567      -1.70453707
H        5.44145151      -2.33362625       0.68359551
H        1.64383030      -5.67775113      -0.08324515
H        2.81150083      -5.46608039      -1.38743300
H        1.13619920      -5.86204179      -1.76860960
H        1.30883250      -2.20481783      -2.62762122
H        1.04831258      -3.82454124      -3.30152325
H        2.67825748      -3.29838309      -2.87050953
H        1.71225973       1.13389242       1.99244678
H        3.11095678       0.81541278       3.03203937
H        1.54630938       1.19805972       3.75520930
H        1.76822982      -2.51562671       4.29703230
H        1.47352239      -0.96625054       5.10427442
H        3.08349147      -1.36030101       4.49722556
H       -5.56277799       1.96177319      -1.11953737
H       -4.54277527      -0.58255540       3.25659772
H       -4.80919346       1.15915961       3.31011168
H       -3.69393148       0.41041813       4.45243503
H       -1.37843592       2.08022576       1.99859564
H       -1.82655835       1.99679925       3.71187464
H       -2.90913269       2.76196946       2.54331441
H       -1.68569452      -0.21759369      -3.42953489
H       -3.25354397      -0.71708338      -4.06635328
H       -1.90455698      -1.84567507      -4.12010225
H       -4.10656108      -3.11668271      -1.31843887
H       -3.41960482      -3.53747443      -2.89914695
H       -4.69795761      -2.32389925      -2.77513487
N        1.33752412       1.36491208      -1.91686586
C       -1.21949280       4.89348680       1.03258588
C       -2.03221415       4.49187163      -0.01776842
H        0.64976085       4.57945318       2.03359595
C        0.01388131       4.28258146       1.20889284
C       -1.60468765       3.50947130      -0.89587963
C       -0.35977420       2.89600999      -0.73669612
C        0.43741900       3.28358937       0.34402443
H       -2.22402069       3.19537561      -1.72513793
H        1.39308811       2.81558354       0.52501621
H       -1.55054364       5.66582923       1.71582638
H       -3.00307614       4.95072255      -0.16186439
C        2.47829424       2.13852185      -1.49422371
C        2.64729772       3.42995796      -1.97339552
C        3.43579288       1.56233783      -0.67235662
C        3.76980795       4.15689500      -1.60911622
H        1.89038182       3.86758036      -2.61379220
C        4.56102575       2.29362419      -0.31722808
H        3.28606738       0.55076516      -0.30678907
C        4.73102965       3.59065901      -0.78295881
H        3.89101127       5.16910689      -1.97064637
H        5.30425859       1.84707373       0.33016991
H        5.61361832       4.15626351      -0.51253084
C        1.61974650       0.72411585      -3.21905660
H        1.75514805       1.48690454      -3.99002183
H        2.53480561       0.14232760      -3.11571810
H        0.79093200       0.08204152      -3.49717741
